@<TRIPOS>MOLECULE
ZINC04985719
   35    37     0     0     0
SMALL
USER_CHARGES
3-hydroxy-5-nitro-3-phenacyl-indolin-2-one
@<TRIPOS>ATOM
      1 C1          2.3965    0.0349   -0.0206 C.ar      1 <0>        -0.0844
      2 C2          1.2075   -0.6735   -0.0131 C.ar      1 <0>        -0.1310
      3 C3          0.0021   -0.0041    0.0020 C.ar      1 <0>        -0.0575
      4 C4         -0.0169    1.3943    0.0097 C.ar      1 <0>        -0.1703
      5 C5          1.1889    2.1028    0.0020 C.ar      1 <0>        -0.0758
      6 C6          2.3860    1.4188   -0.0136 C.ar      1 <0>        -0.1313
      7 C7         -1.2991    2.1166    0.0197 C.2       1 <0>         0.3833
      8 O1         -2.3427    1.4992    0.0213 O.2       1 <0>        -0.4157
      9 C8         -1.3150    3.6235    0.0280 C.3       1 <0>        -0.1736
     10 C9         -2.7628    4.1181    0.0375 C.3       1 <0>         0.1666
     11 C10        -2.8104    5.6201   -0.1242 C.ar      1 <0>        -0.1459
     12 C11        -2.3177    6.6593    0.6326 C.ar      1 <0>         0.0255
     13 C12        -2.5198    7.9663    0.2250 C.ar      1 <0>        -0.0761
     14 C13        -3.2166    8.2230   -0.9418 C.ar      1 <0>        -0.0030
     15 C14        -3.7112    7.1836   -1.7019 C.ar      1 <0>        -0.1433
     16 C15        -3.5116    5.8648   -1.2979 C.ar      1 <0>         0.2203
     17 N1         -3.9062    4.6616   -1.8840 N.am      1 <0>        -0.6579
     18 C16        -3.5114    3.5912   -1.1683 C.2       1 <0>         0.5049
     19 O2         -3.7152    2.4262   -1.4373 O.2       1 <0>        -0.4312
     20 N2         -1.9914    9.0865    1.0355 N.pl3     1 <0>         0.0335
     21 O3         -1.3777    8.8586    2.0626 O.2       1 <0>        -0.1572
     22 O4         -2.1703   10.2362    0.6752 O.3       1 <0>        -0.1569
     23 O5         -3.4175    3.7236    1.2449 O.3       1 <0>        -0.5220
     24 H1          3.3374   -0.4952   -0.0325 H         1 <0>         0.1298
     25 H2          1.2238   -1.7533   -0.0187 H         1 <0>         0.1316
     26 H3         -0.9249   -0.5582    0.0075 H         1 <0>         0.1356
     27 H4          1.1823    3.1828    0.0075 H         1 <0>         0.1307
     28 H5          3.3180    1.9645   -0.0195 H         1 <0>         0.1316
     29 H6         -0.8433    3.9573    0.8441 H         1 <0>         0.1150
     30 H7         -0.8093    3.9971   -0.8624 H         1 <0>         0.1173
     31 H8         -1.7738    6.4548    1.5430 H         1 <0>         0.1631
     32 H9         -3.3745    9.2431   -1.2595 H         1 <0>         0.1664
     33 H10        -4.2542    7.3922   -2.6118 H         1 <0>         0.1574
     34 H11        -4.4084    4.6024   -2.7117 H         1 <0>         0.4229
     35 H12        -3.4420    2.7670    1.3845 H         1 <0>         0.3978
@<TRIPOS>BOND
     1    1    6 ar
     2    1    2 ar
     3    1   24 1
     4    2    3 ar
     5    2   25 1
     6    3    4 ar
     7    3   26 1
     8    4    5 ar
     9    4    7 1
    10    5    6 ar
    11    5   27 1
    12    6   28 1
    13    7    8 2
    14    7    9 1
    15    9   10 1
    16    9   29 1
    17    9   30 1
    18   10   18 1
    19   10   11 1
    20   10   23 1
    21   11   16 ar
    22   11   12 ar
    23   12   13 ar
    24   12   31 1
    25   13   14 ar
    26   13   20 1
    27   14   15 ar
    28   14   32 1
    29   15   16 ar
    30   15   33 1
    31   16   17 1
    32   17   18 am
    33   17   34 1
    34   18   19 2
    35   20   21 2
    36   20   22 1
    37   23   35 1
