@<TRIPOS>MOLECULE
ZINC14850071
   54    56     0     0     0
SMALL
USER_CHARGES
4,6-dimethyl-5-[3-[4-[(4-methyl-2-oxo-3H-thiazol-5-yl)sulfonyl]piperazin-1-yl]-3-oxo-propyl]-2-oxo-1H-pyridine-3-carbonitrile
@<TRIPOS>ATOM
      1 C1          2.5008    1.4423   -0.0131 C.3       1 <0>        -0.1387
      2 C2          1.1717    2.1526    0.0024 C.2       1 <0>         0.1017
      3 C3          1.1135    3.5469    0.0100 C.2       1 <0>        -0.2086
      4 C4         -0.0873    4.1784    0.0244 C.2       1 <0>         0.2117
      5 N1         -1.2485    3.4798    0.0317 N.am      1 <0>        -0.5986
      6 H1         -2.0928    3.9573    0.0420 H         1 <0>         0.4226
      7 C5         -1.2490    2.1333    0.0195 C.2       1 <0>         0.5433
      8 O1         -2.3037    1.5221    0.0215 O.2       1 <0>        -0.5302
      9 C6         -0.0173    1.4278    0.0099 C.2       1 <0>        -0.1785
     10 C7          0.0021   -0.0041    0.0020 C.1       1 <0>         0.2771
     11 N2          0.0175   -1.1399   -0.0042 N.1       1 <0>        -0.4148
     12 C8         -0.1306    5.6848    0.0319 C.3       1 <0>        -0.1405
     13 C9          2.3869    4.3527    0.0016 C.3       1 <0>        -0.0499
     14 C10         2.8990    4.5120    1.4346 C.3       1 <0>        -0.1430
     15 C11         4.1724    5.3179    1.4262 C.2       1 <0>         0.5164
     16 O2          4.6257    5.7248    0.3775 O.2       1 <0>        -0.5312
     17 N3          4.8076    5.5865    2.5842 N.am      1 <0>        -0.6120
     18 C12         4.2666    5.1051    3.8631 C.3       1 <0>         0.0888
     19 C13         5.3581    4.2881    4.5751 C.3       1 <0>         0.1032
     20 N4          6.6007    5.0727    4.5822 N.pl3     1 <0>        -0.9926
     21 C14         7.1386    5.5589    3.3038 C.3       1 <0>         0.1036
     22 C15         6.0502    6.3711    2.5912 C.3       1 <0>         0.0936
     23 S1          7.3805    5.4037    6.0051 S.o2      1 <0>         2.7328
     24 O3          6.9886    4.3958    6.9269 O.2       1 <0>        -0.9417
     25 O4          8.7411    5.6471    5.6755 O.2       1 <0>        -0.9350
     26 C16         6.7301    6.9237    6.6143 C.2       1 <0>        -0.8079
     27 C17         5.9491    7.1406    7.6759 C.2       1 <0>         0.2663
     28 N5          5.5674    8.4185    7.9542 N.am      1 <0>        -0.6506
     29 H2          5.0007    8.6065    8.7187 H         1 <0>         0.4194
     30 C18         5.9892    9.4217    7.1511 C.2       1 <0>         0.4900
     31 O5          5.7583   10.6150    7.2333 O.2       1 <0>        -0.4389
     32 S2          6.9492    8.5768    5.9787 S.3       1 <0>         0.0815
     33 C19         5.4992    5.9960    8.5469 C.3       1 <0>        -0.1464
     34 H3          2.3368    0.3647   -0.0166 H         1 <0>         0.0745
     35 H4          3.0552    1.7284   -0.9068 H         1 <0>         0.0969
     36 H5          3.0715    1.7200    0.8731 H         1 <0>         0.0922
     37 H6         -0.1508    6.0528   -0.9939 H         1 <0>         0.1019
     38 H7         -1.0257    6.0200    0.5558 H         1 <0>         0.0852
     39 H8          0.7535    6.0711    0.5391 H         1 <0>         0.1012
     40 H9          3.1383    3.8387   -0.5977 H         1 <0>         0.0905
     41 H10         2.1917    5.3362   -0.4259 H         1 <0>         0.0893
     42 H11         2.1476    5.0261    2.0339 H         1 <0>         0.0968
     43 H12         3.0942    3.5285    1.8621 H         1 <0>         0.0989
     44 H13         3.9798    5.9552    4.4821 H         1 <0>         0.0770
     45 H14         3.3972    4.4742    3.6783 H         1 <0>         0.1019
     46 H15         5.5208    3.3499    4.0446 H         1 <0>         0.0884
     47 H16         5.0493    4.0828    5.6001 H         1 <0>         0.1055
     48 H17         7.4282    4.7112    2.6827 H         1 <0>         0.0874
     49 H18         8.0069    6.1919    3.4865 H         1 <0>         0.1063
     50 H19         6.3590    6.5764    1.5663 H         1 <0>         0.1097
     51 H20         5.8866    7.3106    3.1192 H         1 <0>         0.0771
     52 H21         6.2244    5.8405    9.3457 H         1 <0>         0.1096
     53 H22         4.5264    6.2294    8.9797 H         1 <0>         0.0895
     54 H23         5.4214    5.0904    7.9454 H         1 <0>         0.1271
@<TRIPOS>BOND
     1    1    2 1
     2    1   34 1
     3    1   35 1
     4    1   36 1
     5    2    9 2
     6    2    3 1
     7    3    4 2
     8    3   13 1
     9    4    5 1
    10    4   12 1
    11    5    6 1
    12    5    7 am
    13    7    8 2
    14    7    9 1
    15    9   10 1
    16   10   11 3
    17   12   37 1
    18   12   38 1
    19   12   39 1
    20   13   14 1
    21   13   40 1
    22   13   41 1
    23   14   15 1
    24   14   42 1
    25   14   43 1
    26   15   16 2
    27   15   17 am
    28   17   22 1
    29   17   18 1
    30   18   19 1
    31   18   44 1
    32   18   45 1
    33   19   20 1
    34   19   46 1
    35   19   47 1
    36   20   21 1
    37   20   23 1
    38   21   22 1
    39   21   48 1
    40   21   49 1
    41   22   50 1
    42   22   51 1
    43   23   24 2
    44   23   25 2
    45   23   26 1
    46   26   32 1
    47   26   27 2
    48   27   28 1
    49   27   33 1
    50   28   29 1
    51   28   30 am
    52   30   31 2
    53   30   32 1
    54   33   52 1
    55   33   53 1
    56   33   54 1
