@<TRIPOS>MOLECULE
ZINC51644914
   46    48     0     0     0
SMALL
USER_CHARGES

@<TRIPOS>ATOM
      1 C1         -0.0181    1.5044   -0.0316 C.3       1 <0>        -0.1098
      2 C2          0.0025   -0.0024   -0.0298 C.ar      1 <0>        -0.1404
      3 C3          0.0018   -0.7033   -1.2185 C.ar      1 <0>         0.1071
      4 N1          0.0202   -2.0227   -1.2254 N.ar      1 <0>        -0.4623
      5 C4          0.0399   -2.7250   -0.1082 C.ar      1 <0>         0.1045
      6 C5          0.0420   -2.0984    1.1208 C.ar      1 <0>        -0.1285
      7 C6          0.0283   -0.7065    1.1713 C.ar      1 <0>         0.1334
      8 O1          0.0349   -0.0531    2.3610 O.3       1 <0>        -0.3280
      9 C7         -1.2349    0.2413    2.9465 C.3       1 <0>         0.0329
     10 C8          0.0645   -2.9086    2.3912 C.3       1 <0>        -0.1131
     11 C9          0.0599   -4.2304   -0.1759 C.3       1 <0>         0.1901
     12 N2          1.4474   -4.6993   -0.2103 N.am      1 <0>        -0.7294
     13 C10         1.7112   -6.0195   -0.2721 C.2       1 <0>         0.7078
     14 O2          0.7976   -6.8214   -0.2993 O.2       1 <0>        -0.5662
     15 N3          2.9877   -6.4509   -0.3037 N.am      1 <0>        -0.6830
     16 C11         3.2639   -7.8232   -0.2703 C.ar      1 <0>         0.1939
     17 C12         4.3865   -8.2893    0.4019 C.ar      1 <0>        -0.1305
     18 C13         4.6599   -9.6420    0.4355 C.ar      1 <0>        -0.0633
     19 C14         3.8127  -10.5378   -0.2021 C.ar      1 <0>         0.1026
     20 C15         2.6884  -10.0725   -0.8750 C.ar      1 <0>         0.1086
     21 C16         2.4126   -8.7182   -0.9042 C.ar      1 <0>        -0.1288
     22 F1          1.8634  -10.9439   -1.4958 F         1 <0>        -0.1255
     23 N4          4.0913  -11.9130   -0.1681 N.pl3     1 <0>        -0.3307
     24 C17         3.3713  -12.8971   -0.7400 C.2       1 <0>         0.2583
     25 N5          3.9619  -14.0355   -0.4789 N.2       1 <0>        -0.5362
     26 C18         5.0547  -13.8208    0.2524 C.2       1 <0>         0.2103
     27 N6          5.1797  -12.5363    0.4639 N.2       1 <0>        -0.3164
     28 H1          1.0044    1.8817   -0.0459 H         1 <0>         0.0796
     29 H2         -0.5488    1.8595   -0.9150 H         1 <0>         0.0742
     30 H3         -0.5248    1.8619    0.8648 H         1 <0>         0.0704
     31 H4         -0.0143   -0.1653   -2.1548 H         1 <0>         0.1643
     32 H5         -1.7767   -0.6874    3.1255 H         1 <0>         0.0511
     33 H6         -1.0869    0.7635    3.8918 H         1 <0>         0.1018
     34 H7         -1.8099    0.8726    2.2690 H         1 <0>         0.0511
     35 H8          1.0974   -3.0896    2.6885 H         1 <0>         0.0791
     36 H9         -0.4502   -2.3608    3.1807 H         1 <0>         0.0716
     37 H10        -0.4376   -3.8615    2.2234 H         1 <0>         0.0767
     38 H11        -0.4405   -4.6402    0.7014 H         1 <0>         0.0915
     39 H12        -0.4576   -4.5604   -1.0767 H         1 <0>         0.0910
     40 H13         2.1762   -4.0596   -0.1886 H         1 <0>         0.4007
     41 H14         3.7150   -5.8107   -0.3496 H         1 <0>         0.4136
     42 H15         5.0462   -7.5930    0.8983 H         1 <0>         0.1461
     43 H16         5.5334  -10.0033    0.9578 H         1 <0>         0.1544
     44 H17         1.5375   -8.3561   -1.4233 H         1 <0>         0.1680
     45 H18         2.4651  -12.7692   -1.3133 H         1 <0>         0.2319
     46 H19         5.7304  -14.5839    0.6094 H         1 <0>         0.2256
@<TRIPOS>BOND
     1    1    2 1
     2    1   28 1
     3    1   29 1
     4    1   30 1
     5    2    7 ar
     6    2    3 ar
     7    3    4 ar
     8    3   31 1
     9    4    5 ar
    10    5    6 ar
    11    5   11 1
    12    6    7 ar
    13    6   10 1
    14    7    8 1
    15    8    9 1
    16    9   32 1
    17    9   33 1
    18    9   34 1
    19   10   35 1
    20   10   36 1
    21   10   37 1
    22   11   12 1
    23   11   38 1
    24   11   39 1
    25   12   13 am
    26   12   40 1
    27   13   14 2
    28   13   15 am
    29   15   16 1
    30   15   41 1
    31   16   21 ar
    32   16   17 ar
    33   17   18 ar
    34   17   42 1
    35   18   19 ar
    36   18   43 1
    37   19   20 ar
    38   19   23 1
    39   20   21 ar
    40   20   22 1
    41   21   44 1
    42   23   27 1
    43   23   24 1
    44   24   25 2
    45   24   45 1
    46   25   26 1
    47   26   27 2
    48   26   46 1
