@<TRIPOS>MOLECULE
ZINC32900299
   45    47     0     0     0
SMALL
USER_CHARGES
[(1R,2R)-2-methylcyclopropyl]-[4-(piperidine-1-carbonyl)piperazin-1-yl]methanone
@<TRIPOS>ATOM
      1 C1          2.8753    3.9724   -0.7918 C.3       1 <0>        -0.1486
      2 C2          1.9937    3.2447    0.2250 C.3       1 <0>        -0.1568
      3 H1          2.8105    3.1566    0.9564 H         1 <0>         0.1312
      4 C3          0.9209    2.2991   -0.3189 C.3       1 <0>        -0.1257
      5 C4          0.5178    3.6423    0.2929 C.3       1 <0>        -0.1517
      6 H2         -0.0771    4.5069   -0.0366 H         1 <0>         0.1431
      7 C5         -0.1475    3.6193    1.6449 C.2       1 <0>         0.5156
      8 O1          0.4856    3.2938    2.6269 O.2       1 <0>        -0.5360
      9 N1         -1.4460    3.9606    1.7629 N.am      1 <0>        -0.6154
     10 C6         -2.2238    4.3629    0.5827 C.3       1 <0>         0.0849
     11 C7         -3.4683    3.4636    0.4917 C.3       1 <0>         0.0664
     12 N2         -4.1301    3.4458    1.8037 N.am      1 <0>        -0.6271
     13 C8         -3.3508    3.0488    2.9848 C.3       1 <0>         0.1153
     14 C9         -2.1078    3.9428    3.0750 C.3       1 <0>         0.0976
     15 C10        -5.4286    3.7871    1.9217 C.2       1 <0>         0.7154
     16 O2         -5.9137    3.9616    3.0228 O.2       1 <0>        -0.5793
     17 N3         -6.1894    3.9348    0.8190 N.am      1 <0>        -0.6352
     18 C11        -5.8139    3.2818   -0.4425 C.3       1 <0>         0.0906
     19 C12        -7.0101    2.4564   -0.9403 C.3       1 <0>        -0.1373
     20 C13        -8.2397    3.3618   -1.0433 C.3       1 <0>        -0.1210
     21 C14        -8.5821    3.9193    0.3402 C.3       1 <0>        -0.1359
     22 C15        -7.4067    4.7568    0.8540 C.3       1 <0>         0.1291
     23 H3          3.9033    3.5862   -0.7286 H         1 <0>         0.0626
     24 H4          2.8745    5.0504   -0.5727 H         1 <0>         0.0598
     25 H5          2.4820    3.8038   -1.8051 H         1 <0>         0.0502
     26 H6          1.0988    2.1198   -1.3895 H         1 <0>         0.1104
     27 H7          0.9641    1.3439    0.2250 H         1 <0>         0.1066
     28 H8         -2.5268    5.4154    0.6846 H         1 <0>         0.0759
     29 H9         -1.6072    4.2446   -0.3206 H         1 <0>         0.1049
     30 H10        -4.1549    3.8636   -0.2689 H         1 <0>         0.1231
     31 H11        -3.1644    2.4442    0.2115 H         1 <0>         0.0783
     32 H12        -3.9662    3.1713    3.8883 H         1 <0>         0.1082
     33 H13        -3.0481    1.9958    2.8874 H         1 <0>         0.0710
     34 H14        -1.4142    3.5443    3.8301 H         1 <0>         0.1068
     35 H15        -2.4021    4.9661    3.3512 H         1 <0>         0.0738
     36 H16        -5.5504    4.0472   -1.1873 H         1 <0>         0.0722
     37 H17        -4.9493    2.6236   -0.2715 H         1 <0>         0.0999
     38 H18        -6.7785    2.0350   -1.9297 H         1 <0>         0.0766
     39 H19        -7.2120    1.6394   -0.2320 H         1 <0>         0.0677
     40 H20        -8.0260    4.1937   -1.7306 H         1 <0>         0.0648
     41 H21        -9.0921    2.7806   -1.4250 H         1 <0>         0.0665
     42 H22        -9.4804    4.5502    0.2692 H         1 <0>         0.0762
     43 H23        -8.7723    3.0872    1.0340 H         1 <0>         0.0684
     44 H24        -7.6019    5.0790    1.8875 H         1 <0>         0.0919
     45 H25        -7.2707    5.6409    0.2138 H         1 <0>         0.0648
@<TRIPOS>BOND
     1    1    2 1
     2    1   23 1
     3    1   24 1
     4    1   25 1
     5    2    3 1
     6    2    5 1
     7    2    4 1
     8    4    5 1
     9    4   26 1
    10    4   27 1
    11    5    6 1
    12    5    7 1
    13    7    8 2
    14    7    9 am
    15    9   14 1
    16    9   10 1
    17   10   11 1
    18   10   28 1
    19   10   29 1
    20   11   12 1
    21   11   30 1
    22   11   31 1
    23   12   13 1
    24   12   15 am
    25   13   14 1
    26   13   32 1
    27   13   33 1
    28   14   34 1
    29   14   35 1
    30   15   16 2
    31   15   17 am
    32   17   22 1
    33   17   18 1
    34   18   19 1
    35   18   36 1
    36   18   37 1
    37   19   20 1
    38   19   38 1
    39   19   39 1
    40   20   21 1
    41   20   40 1
    42   20   41 1
    43   21   22 1
    44   21   42 1
    45   21   43 1
    46   22   44 1
    47   22   45 1
