@<TRIPOS>MOLECULE
ZINC03557744
   42    43     0     0     0
SMALL
USER_CHARGES
(methylcarbamoylcarbamoyl-phenyl-methyl) 3-methylbenzoate
@<TRIPOS>ATOM
      1 C1         -2.5138    0.9719    0.0188 C.3       1 <0>        -0.1160
      2 C2         -1.2221    1.7482    0.0174 C.ar      1 <0>        -0.0980
      3 C3         -0.0126    1.0758    0.0080 C.ar      1 <0>        -0.0813
      4 C4          1.1779    1.7806    0.0004 C.ar      1 <0>        -0.1277
      5 C5          1.1664    3.1602    0.0074 C.ar      1 <0>        -0.0645
      6 C6         -0.0502    3.8449    0.0227 C.ar      1 <0>        -0.1233
      7 C7         -1.2480    3.1271    0.0308 C.ar      1 <0>        -0.0541
      8 C8         -0.0702    5.3220    0.0299 C.2       1 <0>         0.5144
      9 O1         -1.1303    5.9150    0.0432 O.2       1 <0>        -0.4973
     10 O2          1.0871    6.0114    0.0216 O.3       1 <0>        -0.3179
     11 C9          0.9915    7.4602    0.0294 C.3       1 <0>         0.1233
     12 H1          0.0744    7.7665   -0.4739 H         1 <0>         0.1266
     13 C10         0.9725    7.9548    1.4528 C.ar      1 <0>        -0.1255
     14 C11         1.7874    7.3644    2.4006 C.ar      1 <0>        -0.0879
     15 C12         1.7732    7.8209    3.7053 C.ar      1 <0>        -0.1173
     16 C13         0.9370    8.8615    4.0643 C.ar      1 <0>        -0.1039
     17 C14         0.1186    9.4487    3.1176 C.ar      1 <0>        -0.1174
     18 C15         0.1360    8.9950    1.8120 C.ar      1 <0>        -0.0999
     19 C16         2.1790    8.0459   -0.6901 C.2       1 <0>         0.5291
     20 O3          3.0226    7.3146   -1.1627 O.2       1 <0>        -0.4361
     21 N1          2.3033    9.3827   -0.8082 N.am      1 <0>        -0.6838
     22 C17         3.3654    9.9065   -1.4516 C.2       1 <0>         0.6946
     23 O4          4.2111    9.1734   -1.9254 O.2       1 <0>        -0.5246
     24 N2          3.4897   11.2434   -1.5697 N.am      1 <0>        -0.7396
     25 C18         4.6442   11.8127   -2.2691 C.3       1 <0>         0.1021
     26 H2         -2.8205    0.7788    1.0468 H         1 <0>         0.0743
     27 H3         -3.2860    1.5505   -0.4882 H         1 <0>         0.0701
     28 H4         -2.3691    0.0249   -0.5012 H         1 <0>         0.0708
     29 H5          0.0021   -0.0041    0.0020 H         1 <0>         0.1311
     30 H6          2.1183    1.2497   -0.0115 H         1 <0>         0.1345
     31 H7          2.0964    3.7092    0.0015 H         1 <0>         0.1408
     32 H8         -2.1926    3.6506    0.0426 H         1 <0>         0.1381
     33 H9          2.4377    6.5487    2.1209 H         1 <0>         0.1300
     34 H10         2.4129    7.3624    4.4448 H         1 <0>         0.1287
     35 H11         0.9234    9.2160    5.0844 H         1 <0>         0.1276
     36 H12        -0.5347   10.2617    3.3982 H         1 <0>         0.1301
     37 H13        -0.5038    9.4535    1.0724 H         1 <0>         0.1288
     38 H14         1.6284    9.9678   -0.4301 H         1 <0>         0.4107
     39 H15         2.8148   11.8285   -1.1916 H         1 <0>         0.4012
     40 H16         5.5612   11.5065   -1.7658 H         1 <0>         0.0633
     41 H17         4.6579   11.4550   -3.2987 H         1 <0>         0.0635
     42 H18         4.5724   12.9003   -2.2633 H         1 <0>         0.0821
@<TRIPOS>BOND
     1    1    2 1
     2    1   26 1
     3    1   27 1
     4    1   28 1
     5    2    7 ar
     6    2    3 ar
     7    3    4 ar
     8    3   29 1
     9    4    5 ar
    10    4   30 1
    11    5    6 ar
    12    5   31 1
    13    6    7 ar
    14    6    8 1
    15    7   32 1
    16    8    9 2
    17    8   10 1
    18   10   11 1
    19   11   12 1
    20   11   13 1
    21   11   19 1
    22   13   18 ar
    23   13   14 ar
    24   14   15 ar
    25   14   33 1
    26   15   16 ar
    27   15   34 1
    28   16   17 ar
    29   16   35 1
    30   17   18 ar
    31   17   36 1
    32   18   37 1
    33   19   20 2
    34   19   21 am
    35   21   22 am
    36   21   38 1
    37   22   23 2
    38   22   24 am
    39   24   25 1
    40   24   39 1
    41   25   40 1
    42   25   41 1
    43   25   42 1
