@<TRIPOS>MOLECULE
ZINC39979748
   47    50     0     0     0
SMALL
USER_CHARGES

@<TRIPOS>ATOM
      1 C1          0.1156    1.4593   -0.0033 C.3       1 <0>         0.0710
      2 N1          0.0608   -0.0047   -0.0039 N.pl3     1 <0>        -0.4611
      3 C2         -0.0870   -0.8307   -1.0941 C.2       1 <0>         0.2337
      4 N2         -0.0842   -2.0647   -0.6457 N.2       1 <0>        -0.2550
      5 N3          0.0533   -2.0669    0.6320 N.2       1 <0>        -0.2681
      6 C3          0.1519   -0.8348    1.0776 C.2       1 <0>         0.1642
      7 S1          0.3590   -0.3442    2.7572 S.3       1 <0>         0.0322
      8 C4          0.4039   -1.9113    3.6698 C.3       1 <0>        -0.0619
      9 H1          1.1834   -2.5448    3.2465 H         1 <0>         0.1318
     10 C5          0.7337   -1.6277    5.1148 C.3       1 <0>        -0.1007
     11 C6          1.1355   -2.8513    5.8791 C.3       1 <0>        -0.0760
     12 C7          0.0159   -3.7667    6.2619 C.ar      1 <0>        -0.1258
     13 C8          0.1535   -4.4130    7.4879 C.ar      1 <0>        -0.1089
     14 C9         -0.8030   -5.2887    7.9507 C.ar      1 <0>        -0.1249
     15 C10        -1.9284   -5.5374    7.1847 C.ar      1 <0>        -0.1131
     16 C11        -2.0816   -4.9064    5.9762 C.ar      1 <0>        -0.1024
     17 C12        -1.1115   -4.0019    5.4910 C.ar      1 <0>         0.1795
     18 N4         -1.4030   -3.4406    4.3026 N.2       1 <0>        -0.6313
     19 C13        -0.9079   -2.5947    3.5204 C.2       1 <0>         0.4434
     20 O1         -1.6385   -2.2749    2.4329 O.3       1 <0>        -0.4558
     21 C14        -0.2237   -0.4088   -2.5037 C.ar      1 <0>        -0.0578
     22 C15         0.6446    0.5440   -3.0379 C.ar      1 <0>        -0.0592
     23 C16         0.5120    0.9340   -4.3545 C.ar      1 <0>        -0.1568
     24 C17        -0.4793    0.3838   -5.1485 C.ar      1 <0>        -0.0604
     25 C18        -1.3452   -0.5608   -4.6305 C.ar      1 <0>        -0.2101
     26 C19        -1.2215   -0.9672   -3.3119 C.ar      1 <0>         0.1713
     27 O2         -2.0681   -1.8999   -2.8035 O.3       1 <0>        -0.2957
     28 C20        -3.0610   -2.4250   -3.6870 C.3       1 <0>         0.0245
     29 H2          1.1356    1.7848   -0.2076 H         1 <0>         0.0857
     30 H3         -0.5509    1.8481   -0.7732 H         1 <0>         0.0942
     31 H4         -0.1971    1.8342    0.9712 H         1 <0>         0.0942
     32 H5          1.5507   -0.9072    5.1526 H         1 <0>         0.0998
     33 H6         -0.1408   -1.1872    5.5936 H         1 <0>         0.0802
     34 H7          1.8461   -3.4144    5.2741 H         1 <0>         0.0791
     35 H8          1.6444   -2.5342    6.7894 H         1 <0>         0.0910
     36 H9          1.0305   -4.2233    8.0891 H         1 <0>         0.1214
     37 H10        -0.6757   -5.7784    8.9048 H         1 <0>         0.1249
     38 H11        -2.6828   -6.2255    7.5366 H         1 <0>         0.1264
     39 H12        -2.9623   -5.1054    5.3836 H         1 <0>         0.1259
     40 H13        -2.4832   -2.7419    2.3753 H         1 <0>         0.4030
     41 H14         1.4191    0.9758   -2.4214 H         1 <0>         0.1293
     42 H15         1.1842    1.6717   -4.7672 H         1 <0>         0.1321
     43 H16        -0.5770    0.6945   -6.1783 H         1 <0>         0.1315
     44 H17        -2.1164   -0.9859   -5.2557 H         1 <0>         0.1364
     45 H18        -3.6685   -3.1581   -3.1562 H         1 <0>         0.1030
     46 H19        -3.6973   -1.6142   -4.0415 H         1 <0>         0.0562
     47 H20        -2.5745   -2.9034   -4.5371 H         1 <0>         0.0589
@<TRIPOS>BOND
     1    1    2 1
     2    1   29 1
     3    1   30 1
     4    1   31 1
     5    2    6 1
     6    2    3 1
     7    3    4 2
     8    3   21 1
     9    4    5 1
    10    5    6 2
    11    6    7 1
    12    7    8 1
    13    8    9 1
    14    8   19 1
    15    8   10 1
    16   10   11 1
    17   10   32 1
    18   10   33 1
    19   11   12 1
    20   11   34 1
    21   11   35 1
    22   12   17 ar
    23   12   13 ar
    24   13   14 ar
    25   13   36 1
    26   14   15 ar
    27   14   37 1
    28   15   16 ar
    29   15   38 1
    30   16   17 ar
    31   16   39 1
    32   17   18 1
    33   18   19 2
    34   19   20 1
    35   20   40 1
    36   21   26 ar
    37   21   22 ar
    38   22   23 ar
    39   22   41 1
    40   23   24 ar
    41   23   42 1
    42   24   25 ar
    43   24   43 1
    44   25   26 ar
    45   25   44 1
    46   26   27 1
    47   27   28 1
    48   28   45 1
    49   28   46 1
    50   28   47 1
