@<TRIPOS>MOLECULE
ZINC64684639
   58    61     0     0     0
SMALL
USER_CHARGES

@<TRIPOS>ATOM
      1 C1         -0.0549    1.2732    0.0750 C.ar      1 <0>        -0.1710
      2 C2          1.0987    2.0655   -0.0034 C.ar      1 <0>         0.0549
      3 C3          2.3413    1.5411   -0.0577 C.ar      1 <0>        -0.2166
      4 C4          2.5280    0.1313   -0.0371 C.ar      1 <0>         0.3249
      5 N1          3.6107   -0.6066   -0.0791 N.pl3     1 <0>        -0.5978
      6 C5          3.2167   -2.0189   -0.0278 C.3       1 <0>         0.0589
      7 C6          1.7065   -2.0254    0.0529 C.2       1 <0>         0.0975
      8 C7          1.3252   -0.7277    0.0455 C.ar      1 <0>        -0.1914
      9 C8          0.0105   -0.0774    0.1012 C.ar      1 <0>         0.0125
     10 C9          0.8082   -3.2333    0.1258 C.3       1 <0>        -0.0895
     11 C10         0.5289   -3.7473   -1.2879 C.3       1 <0>         0.0853
     12 H1          0.1214   -2.9387   -1.8946 H         1 <0>         0.0968
     13 C11        -0.4657   -4.8777   -1.2240 C.2       1 <0>         0.4921
     14 O1         -1.6601   -4.6433   -1.2932 O.co2     1 <0>        -0.6703
     15 O2         -0.0758   -6.0266   -1.1032 O.co2     1 <0>        -0.6680
     16 N2          1.7760   -4.2275   -1.8882 N.am      1 <0>        -0.7083
     17 C12         1.9129   -4.2521   -3.2287 C.2       1 <0>         0.5308
     18 O3          1.0037   -3.8767   -3.9381 O.2       1 <0>        -0.5043
     19 C13         3.1958   -4.7460   -3.8462 C.3       1 <0>        -0.1390
     20 S1          3.0706   -4.6566   -5.6537 S.3       1 <0>        -0.0982
     21 C14         4.6725   -5.2775   -6.2358 C.3       1 <0>         0.2036
     22 H2          4.7143   -5.2566   -7.3248 H         1 <0>         0.1373
     23 N3          5.7809   -4.4724   -5.6592 N.3       1 <0>        -0.4862
     24 N4          6.9139   -5.4119   -5.7163 N.3       1 <0>        -0.5033
     25 C15         6.2945   -6.7252   -5.4254 C.3       1 <0>         0.1978
     26 H3          6.4128   -6.9659   -4.3689 H         1 <0>         0.1081
     27 O4          4.8991   -6.6133   -5.7507 O.3       1 <0>        -0.3940
     28 C16         6.9468   -7.8109   -6.2837 C.3       1 <0>        -0.1027
     29 C17         6.3250   -9.1681   -5.9485 C.3       1 <0>        -0.1089
     30 C18         6.9772  -10.2539   -6.8068 C.3       1 <0>        -0.1195
     31 C19         8.4796  -10.2965   -6.5202 C.3       1 <0>        -0.1220
     32 C20         9.1014   -8.9393   -6.8554 C.3       1 <0>        -0.1189
     33 C21         8.4491   -7.8536   -5.9972 C.3       1 <0>        -0.1103
     34 H4         -1.0209    1.7539    0.1202 H         1 <0>         0.1547
     35 H5          0.9888    3.1398   -0.0216 H         1 <0>         0.1555
     36 H6          3.1984    2.1955   -0.1174 H         1 <0>         0.1550
     37 H7          3.5469   -2.5341   -0.9299 H         1 <0>         0.1641
     38 H8          3.6421   -2.4959    0.8551 H         1 <0>         0.1724
     39 H9         -0.8912   -0.6686    0.1622 H         1 <0>         0.1641
     40 H10         1.2973   -4.0152    0.7068 H         1 <0>         0.1172
     41 H11        -0.1316   -2.9587    0.6049 H         1 <0>         0.1272
     42 H12         2.5033   -4.5277   -1.3208 H         1 <0>         0.3925
     43 H13         4.0247   -4.1241   -3.5082 H         1 <0>         0.1016
     44 H14         3.3700   -5.7789   -3.5448 H         1 <0>         0.1215
     45 H15         5.5782   -4.2078   -4.7068 H         1 <0>         0.3547
     46 H16         7.3411   -5.4081   -6.6304 H         1 <0>         0.3653
     47 H17         6.7842   -7.5872   -7.3380 H         1 <0>         0.0764
     48 H18         6.4876   -9.3918   -4.8942 H         1 <0>         0.0632
     49 H19         5.2547   -9.1377   -6.1526 H         1 <0>         0.0712
     50 H20         6.5342  -11.2207   -6.5680 H         1 <0>         0.0649
     51 H21         6.8146  -10.0301   -7.8611 H         1 <0>         0.0615
     52 H22         8.6422  -10.5202   -5.4659 H         1 <0>         0.0620
     53 H23         8.9443  -11.0700   -7.1317 H         1 <0>         0.0623
     54 H24        10.1717   -8.9697   -6.6513 H         1 <0>         0.0648
     55 H25         8.9388   -8.7156   -7.9097 H         1 <0>         0.0618
     56 H26         8.8921   -6.8867   -6.2359 H         1 <0>         0.0682
     57 H27         8.6117   -8.0773   -4.9428 H         1 <0>         0.0664
     58 H28         4.5204   -0.2744   -0.1350 H         1 <0>         0.4509
@<TRIPOS>BOND
     1    1    9 ar
     2    1    2 ar
     3    1   34 1
     4    2    3 ar
     5    2   35 1
     6    3    4 ar
     7    3   36 1
     8    4    8 ar
     9    4    5 2
    10    5    6 1
    11    5   58 1
    12    6    7 1
    13    6   37 1
    14    6   38 1
    15    7    8 2
    16    7   10 1
    17    8    9 ar
    18    9   39 1
    19   10   11 1
    20   10   40 1
    21   10   41 1
    22   11   12 1
    23   11   13 1
    24   11   16 1
    25   13   14 2
    26   13   15 1
    27   16   17 am
    28   16   42 1
    29   17   18 2
    30   17   19 1
    31   19   20 1
    32   19   43 1
    33   19   44 1
    34   20   21 1
    35   21   22 1
    36   21   27 1
    37   21   23 1
    38   23   24 1
    39   23   45 1
    40   24   25 1
    41   24   46 1
    42   25   26 1
    43   25   27 1
    44   25   28 1
    45   28   33 1
    46   28   29 1
    47   28   47 1
    48   29   30 1
    49   29   48 1
    50   29   49 1
    51   30   31 1
    52   30   50 1
    53   30   51 1
    54   31   32 1
    55   31   52 1
    56   31   53 1
    57   32   33 1
    58   32   54 1
    59   32   55 1
    60   33   56 1
    61   33   57 1
