@<TRIPOS>MOLECULE
ZINC18041203
   45    47     0     0     0
SMALL
USER_CHARGES

@<TRIPOS>ATOM
      1 C1         -0.0187    1.5258    0.0104 C.3       1 <0>        -0.1396
      2 C2          0.0021   -0.0041    0.0020 C.3       1 <0>        -0.1482
      3 C3          0.7074   -0.4901   -1.2379 C.2       1 <0>         0.5355
      4 O1          1.1500    0.3085   -2.0362 O.2       1 <0>        -0.4881
      5 N1          0.8465   -1.8122   -1.4596 N.am      1 <0>        -0.4342
      6 C4          1.5157   -2.4132   -2.6214 C.3       1 <0>         0.1691
      7 H1          1.0079   -2.1280   -3.5428 H         1 <0>         0.1278
      8 C5          1.3981   -3.9311   -2.3905 C.3       1 <0>        -0.1073
      9 C6          0.6515   -4.0533   -1.0814 C.2       1 <0>         0.3579
     10 N2          0.3834   -2.8232   -0.6200 N.pl3     1 <0>        -0.4532
     11 C7          0.3066   -5.2388   -0.4595 C.2       1 <0>        -0.4006
     12 C8          0.6590   -6.5450   -1.0442 C.2       1 <0>         0.5921
     13 N3          0.2903   -7.6605   -0.3814 N.am      1 <0>        -0.6612
     14 H2          0.5144   -8.5282   -0.7526 H         1 <0>         0.4368
     15 C9         -0.3784   -7.5975    0.7786 C.2       1 <0>         0.7126
     16 O2         -0.6806   -8.6397    1.3259 O.2       1 <0>        -0.5304
     17 N4         -0.7312   -6.4461    1.3671 N.am      1 <0>        -0.5592
     18 C10        -0.4241   -5.2517    0.8203 C.2       1 <0>         0.5861
     19 O3         -0.7456   -4.2133    1.3667 O.2       1 <0>        -0.5262
     20 C11        -1.4620   -6.4855    2.6362 C.3       1 <0>         0.0770
     21 O4          1.2657   -6.6152   -2.0964 O.2       1 <0>        -0.5063
     22 C12         2.9631   -1.9963   -2.6689 C.ar      1 <0>        -0.0499
     23 C13         3.6929   -1.8984   -1.4989 C.ar      1 <0>        -0.1024
     24 C14         5.0206   -1.5159   -1.5425 C.ar      1 <0>        -0.0498
     25 C15         5.6186   -1.2317   -2.7559 C.ar      1 <0>        -0.0404
     26 C16         4.8890   -1.3305   -3.9259 C.ar      1 <0>        -0.0483
     27 C17         3.5625   -1.7171   -3.8828 C.ar      1 <0>        -0.0909
     28 N5          7.0399   -0.8212   -2.8025 N.pl3     1 <0>         0.0306
     29 O5          7.6779   -0.7345   -1.7791 O.2       1 <0>        -0.1546
     30 O6          7.5629   -0.5727   -3.8637 O.3       1 <0>        -0.1508
     31 H3          1.0039    1.9031    0.0027 H         1 <0>         0.0656
     32 H4         -0.5459    1.8868   -0.8726 H         1 <0>         0.0665
     33 H5         -0.5289    1.8773    0.9072 H         1 <0>         0.0715
     34 H6          0.5293   -0.3651    0.8851 H         1 <0>         0.1011
     35 H7         -1.0205   -0.3814    0.0098 H         1 <0>         0.1024
     36 H8          0.8316   -4.3965   -3.1971 H         1 <0>         0.1424
     37 H9          2.3871   -4.3819   -2.3087 H         1 <0>         0.1365
     38 H10        -1.6204   -7.5225    2.9322 H         1 <0>         0.1053
     39 H11        -0.8837   -5.9726    3.4046 H         1 <0>         0.0808
     40 H12        -2.4258   -5.9908    2.5159 H         1 <0>         0.0808
     41 H13         3.2257   -2.1204   -0.5509 H         1 <0>         0.1387
     42 H14         5.5905   -1.4388   -0.6284 H         1 <0>         0.1564
     43 H15         5.3561   -1.1081   -4.8740 H         1 <0>         0.1599
     44 H16         2.9936   -1.7979   -4.7972 H         1 <0>         0.1540
     45 H17        -0.0871   -2.6545    0.2113 H         1 <0>         0.4543
@<TRIPOS>BOND
     1    1    2 1
     2    1   31 1
     3    1   32 1
     4    1   33 1
     5    2    3 1
     6    2   34 1
     7    2   35 1
     8    3    4 2
     9    3    5 am
    10    5   10 1
    11    5    6 1
    12    6    7 1
    13    6    8 1
    14    6   22 1
    15    8    9 1
    16    8   36 1
    17    8   37 1
    18    9   10 1
    19    9   11 2
    20   10   45 1
    21   11   18 1
    22   11   12 1
    23   12   13 am
    24   12   21 2
    25   13   14 1
    26   13   15 am
    27   15   16 2
    28   15   17 am
    29   17   18 am
    30   17   20 1
    31   18   19 2
    32   20   38 1
    33   20   39 1
    34   20   40 1
    35   22   27 ar
    36   22   23 ar
    37   23   24 ar
    38   23   41 1
    39   24   25 ar
    40   24   42 1
    41   25   26 ar
    42   25   28 1
    43   26   27 ar
    44   26   43 1
    45   27   44 1
    46   28   29 2
    47   28   30 1
