@<TRIPOS>MOLECULE
ZINC11180629
   49    50     0     0     0
SMALL
USER_CHARGES
2-[[4-(diethylsulfamoyl)-6,8,9-triazabicyclo[4.3.0]nona-2,4,7,9-tetraen-7-yl]sulfanyl]-N-(methylcarbamoyl)propanamide
@<TRIPOS>ATOM
      1 C1          3.6284    6.6471   -2.2024 C.3       1 <0>        -0.1756
      2 C2          2.5553    5.5590   -2.2748 C.3       1 <0>         0.1164
      3 N1          3.0315    4.3568   -1.5862 N.pl3     1 <0>        -0.9914
      4 C3          3.8648    3.3857   -2.2996 C.3       1 <0>         0.1066
      5 C4          2.9690    2.4124   -3.0684 C.3       1 <0>        -0.1793
      6 S1          2.6279    4.0956   -0.0016 S.o2      1 <0>         2.6968
      7 O1          2.3385    5.3688    0.5590 O.2       1 <0>        -0.9411
      8 O2          3.6239    3.2356    0.5347 O.2       1 <0>        -0.9361
      9 C5          1.1188    3.1861    0.0085 C.2       1 <0>        -0.6912
     10 C6          1.1505    1.7791    0.0006 C.2       1 <0>        -0.0302
     11 C7         -0.0126    1.0758    0.0080 C.2       1 <0>        -0.0774
     12 C8         -1.2381    1.7720    0.0175 C.2       1 <0>         0.2220
     13 N2         -2.5013    1.3887    0.0330 N.2       1 <0>        -0.2687
     14 N3         -3.2678    2.4219    0.0458 N.2       1 <0>        -0.2416
     15 C9         -2.5497    3.5224    0.0449 C.2       1 <0>         0.1184
     16 N4         -1.2377    3.1510    0.0304 N.pl3     1 <0>        -0.3886
     17 C10        -0.0585    3.8426    0.0233 C.2       1 <0>         0.2082
     18 S2         -3.1676    5.1724    0.0592 S.3       1 <0>         0.0871
     19 C11        -4.9697    4.9660    0.0755 C.3       1 <0>        -0.1084
     20 H1         -5.2718    4.3433   -0.7666 H         1 <0>         0.1328
     21 C12        -5.3945    4.2957    1.3836 C.3       1 <0>        -0.1489
     22 C13        -5.6310    6.3157   -0.0352 C.2       1 <0>         0.5443
     23 O3         -5.0105    7.3193    0.2432 O.2       1 <0>        -0.4441
     24 N5         -6.9121    6.4070   -0.4436 N.am      1 <0>        -0.6836
     25 C14        -7.5035    7.6140   -0.5426 C.2       1 <0>         0.6929
     26 O4         -6.8814    8.6202   -0.2635 O.2       1 <0>        -0.5235
     27 N6         -8.7846    7.7053   -0.9510 N.am      1 <0>        -0.7390
     28 C15        -9.4274    9.0174   -1.0586 C.3       1 <0>         0.1016
     29 H2          4.5401    6.2908   -2.6820 H         1 <0>         0.0621
     30 H3          3.2741    7.5416   -2.7147 H         1 <0>         0.0724
     31 H4          3.8357    6.8841   -1.1588 H         1 <0>         0.0654
     32 H5          2.3481    5.3220   -3.3184 H         1 <0>         0.0847
     33 H6          1.6436    5.9153   -1.7952 H         1 <0>         0.0802
     34 H7          4.5160    3.9101   -2.9990 H         1 <0>         0.0907
     35 H8          4.4719    2.8322   -1.5832 H         1 <0>         0.0973
     36 H9          3.5890    1.6899   -3.5992 H         1 <0>         0.0745
     37 H10         2.3179    1.8881   -2.3691 H         1 <0>         0.0552
     38 H11         2.3620    2.9659   -3.7849 H         1 <0>         0.0616
     39 H12         2.0971    1.2592   -0.0109 H         1 <0>         0.1655
     40 H13         0.0021   -0.0041    0.0020 H         1 <0>         0.1703
     41 H14        -0.0702    4.9225    0.0293 H         1 <0>         0.1891
     42 H15        -4.9163    3.3195    1.4637 H         1 <0>         0.0901
     43 H16        -5.0925    4.9184    2.2257 H         1 <0>         0.0782
     44 H17        -6.4774    4.1717    1.3934 H         1 <0>         0.0789
     45 H18        -7.4085    5.6040   -0.6663 H         1 <0>         0.4135
     46 H19        -9.2810    6.9023   -1.1737 H         1 <0>         0.4017
     47 H20        -9.4268    9.5034   -0.0829 H         1 <0>         0.0638
     48 H21        -8.8792    9.6332   -1.7716 H         1 <0>         0.0637
     49 H22       -10.4545    8.8918   -1.4013 H         1 <0>         0.0825
@<TRIPOS>BOND
     1    1    2 1
     2    1   29 1
     3    1   30 1
     4    1   31 1
     5    2    3 1
     6    2   32 1
     7    2   33 1
     8    3    4 1
     9    3    6 1
    10    4    5 1
    11    4   34 1
    12    4   35 1
    13    5   36 1
    14    5   37 1
    15    5   38 1
    16    6    7 2
    17    6    8 2
    18    6    9 1
    19    9   17 2
    20    9   10 1
    21   10   11 2
    22   10   39 1
    23   11   12 1
    24   11   40 1
    25   12   16 1
    26   12   13 2
    27   13   14 1
    28   14   15 2
    29   15   16 1
    30   15   18 1
    31   16   17 1
    32   17   41 1
    33   18   19 1
    34   19   20 1
    35   19   21 1
    36   19   22 1
    37   21   42 1
    38   21   43 1
    39   21   44 1
    40   22   23 2
    41   22   24 am
    42   24   25 am
    43   24   45 1
    44   25   26 2
    45   25   27 am
    46   27   28 1
    47   27   46 1
    48   28   47 1
    49   28   48 1
    50   28   49 1
