@<TRIPOS>MOLECULE
ZINC36163023
   54    57     0     0     0
SMALL
USER_CHARGES

@<TRIPOS>ATOM
      1 C1         -0.3694    1.4316    0.0348 C.3       1 <0>        -0.1909
      2 C2         -0.1506   -0.0594    0.0250 C.ar      1 <0>         0.0397
      3 C3         -0.2394   -0.7595   -1.1611 C.ar      1 <0>        -0.1443
      4 C4         -0.0381   -2.1350   -1.1739 C.ar      1 <0>         0.1817
      5 C5          0.2536   -2.8030    0.0169 C.ar      1 <0>         0.0907
      6 C6          0.3405   -2.0871    1.2055 C.ar      1 <0>        -0.0124
      7 C7          0.1443   -0.7210    1.2048 C.ar      1 <0>        -0.6749
      8 S1          0.2625    0.1835    2.7124 S.o2      1 <0>         2.6952
      9 O1         -0.8508    1.0659    2.7449 O.2       1 <0>        -0.9454
     10 O2          0.5108   -0.7678    3.7383 O.2       1 <0>        -0.9496
     11 N1          1.6157    1.1324    2.6092 N.pl3     1 <0>        -0.9947
     12 C8          2.9439    0.5913    2.9354 C.3       1 <0>         0.1275
     13 C9          3.8962    0.9075    1.7772 C.3       1 <0>         0.0357
     14 N2          3.8639    2.3499    1.5009 N.3       1 <0>        -0.5290
     15 C10         2.5296    2.7784    1.0604 C.3       1 <0>         0.0305
     16 C11         1.5221    2.5371    2.1832 C.3       1 <0>         0.1151
     17 C12         4.8879    2.7200    0.5148 C.3       1 <0>         0.0873
     18 C13         6.2719    2.3549    1.0552 C.3       1 <0>        -0.1134
     19 C14         7.3385    2.7404    0.0282 C.3       1 <0>        -0.1191
     20 C15         7.2741    4.2465   -0.2332 C.3       1 <0>        -0.1214
     21 C16         5.8900    4.6117   -0.7736 C.3       1 <0>        -0.1188
     22 C17         4.8235    4.2262    0.2535 C.3       1 <0>        -0.1149
     23 N3          0.4579   -4.1800    0.0248 N.am      1 <0>        -0.6329
     24 H1          0.6598   -4.6349    0.8574 H         1 <0>         0.4268
     25 C18         0.3752   -4.8824   -1.1233 C.2       1 <0>         0.5089
     26 O3          0.5519   -6.0841   -1.1214 O.2       1 <0>        -0.4595
     27 C19         0.0640   -4.1687   -2.3955 C.2       1 <0>         0.5103
     28 O4         -0.0149   -4.7833   -3.4402 O.2       1 <0>        -0.4545
     29 N4         -0.1298   -2.8344   -2.3740 N.am      1 <0>        -0.6365
     30 H2         -0.3333   -2.3612   -3.1960 H         1 <0>         0.4263
     31 H3          0.5927    1.9404   -0.0248 H         1 <0>         0.0934
     32 H4         -0.9835    1.7143   -0.8202 H         1 <0>         0.0896
     33 H5         -0.8756    1.7184    0.9565 H         1 <0>         0.1179
     34 H6         -0.4656   -0.2385   -2.0797 H         1 <0>         0.1492
     35 H7          0.5652   -2.5996    2.1292 H         1 <0>         0.1600
     36 H8          3.3134    1.0545    3.8502 H         1 <0>         0.0880
     37 H9          2.8765   -0.4883    3.0696 H         1 <0>         0.0910
     38 H10         4.9096    0.6117    2.0485 H         1 <0>         0.0937
     39 H11         3.5826    0.3598    0.8885 H         1 <0>         0.0387
     40 H12         2.5520    3.8394    0.8117 H         1 <0>         0.0965
     41 H13         2.2351    2.2046    0.1816 H         1 <0>         0.0423
     42 H14         0.5151    2.7433    1.8205 H         1 <0>         0.1013
     43 H15         1.7523    3.1909    3.0244 H         1 <0>         0.0877
     44 H16         4.7076    2.1818   -0.4157 H         1 <0>         0.0399
     45 H17         6.4522    2.8932    1.9857 H         1 <0>         0.0735
     46 H18         6.3178    1.2819    1.2414 H         1 <0>         0.0624
     47 H19         8.3245    2.4803    0.4132 H         1 <0>         0.0649
     48 H20         7.1582    2.2022   -0.9024 H         1 <0>         0.0593
     49 H21         7.4544    4.7848    0.6974 H         1 <0>         0.0640
     50 H22         8.0339    4.5212   -0.9648 H         1 <0>         0.0615
     51 H23         5.8441    5.6847   -0.9598 H         1 <0>         0.0651
     52 H24         5.7097    4.0734   -1.7041 H         1 <0>         0.0594
     53 H25         3.8375    4.4863   -0.1316 H         1 <0>         0.0634
     54 H26         5.0038    4.7644    1.1840 H         1 <0>         0.0738
@<TRIPOS>BOND
     1    1    2 1
     2    1   31 1
     3    1   32 1
     4    1   33 1
     5    2    7 ar
     6    2    3 ar
     7    3    4 ar
     8    3   34 1
     9    4   29 1
    10    4    5 ar
    11    5    6 ar
    12    5   23 1
    13    6    7 ar
    14    6   35 1
    15    7    8 1
    16    8    9 2
    17    8   10 2
    18    8   11 1
    19   11   16 1
    20   11   12 1
    21   12   13 1
    22   12   36 1
    23   12   37 1
    24   13   14 1
    25   13   38 1
    26   13   39 1
    27   14   15 1
    28   14   17 1
    29   15   16 1
    30   15   40 1
    31   15   41 1
    32   16   42 1
    33   16   43 1
    34   17   22 1
    35   17   18 1
    36   17   44 1
    37   18   19 1
    38   18   45 1
    39   18   46 1
    40   19   20 1
    41   19   47 1
    42   19   48 1
    43   20   21 1
    44   20   49 1
    45   20   50 1
    46   21   22 1
    47   21   51 1
    48   21   52 1
    49   22   53 1
    50   22   54 1
    51   23   24 1
    52   23   25 am
    53   25   26 2
    54   25   27 1
    55   27   28 2
    56   27   29 am
    57   29   30 1
