@<TRIPOS>MOLECULE
ZINC49549674
   44    47     0     0     0
SMALL
USER_CHARGES

@<TRIPOS>ATOM
      1 C1         -0.0173    1.4248    0.0099 C.3       1 <0>         0.0241
      2 O1          0.0021   -0.0041    0.0020 O.3       1 <0>        -0.3055
      3 C2          0.6062   -0.6075   -1.0564 C.ar      1 <0>         0.1143
      4 C3          1.1729    0.1590   -2.0621 C.ar      1 <0>        -0.1971
      5 C4          1.7870   -0.4560   -3.1371 C.ar      1 <0>        -0.0634
      6 C5          1.8372   -1.8356   -3.2121 C.ar      1 <0>        -0.1191
      7 C6          1.2734   -2.6062   -2.2124 C.ar      1 <0>        -0.0652
      8 C7          0.6617   -1.9961   -1.1290 C.ar      1 <0>         0.0757
      9 O2          0.1119   -2.7526   -0.1417 O.3       1 <0>        -0.4826
     10 C8          2.5075   -2.5009   -4.3865 C.3       1 <0>         0.2819
     11 H1          2.4480   -3.5831   -4.2712 H         1 <0>         0.1143
     12 C9          3.9595   -2.0813   -4.4389 C.2       1 <0>        -0.3179
     13 C10         4.4242   -1.2110   -5.3604 C.2       1 <0>         0.2447
     14 C11         5.8801   -0.8107   -5.3881 C.3       1 <0>        -0.1010
     15 C12         6.4526   -0.8510   -3.9699 C.3       1 <0>        -0.1119
     16 C13         6.2772   -2.2706   -3.4197 C.3       1 <0>        -0.1659
     17 C14         4.8209   -2.6388   -3.4758 C.2       1 <0>         0.4097
     18 O3          4.3776   -3.4350   -2.6717 O.2       1 <0>        -0.4642
     19 N1          3.5999   -0.6594   -6.3123 N.pl3     1 <0>        -0.6147
     20 C15         2.3607   -1.2358   -6.5069 C.2       1 <0>         0.3802
     21 N2          1.8285   -2.1069   -5.6188 N.pl3     1 <0>        -0.3646
     22 N3          0.5861   -2.5103   -6.1019 N.2       1 <0>        -0.2667
     23 C16         0.3527   -1.9098   -7.2384 C.2       1 <0>         0.0981
     24 C17         1.4564   -1.0853   -7.5389 C.2       1 <0>        -0.3218
     25 C18         1.6119   -0.2285   -8.7220 C.2       1 <0>         0.6071
     26 O4          2.6190    0.4398   -8.8610 O.2       1 <0>        -0.5657
     27 N4          0.6388   -0.1826   -9.6534 N.am      1 <0>        -0.8481
     28 H2          1.0053    1.8021    0.0021 H         1 <0>         0.0565
     29 H3         -0.5445    1.7859   -0.8732 H         1 <0>         0.0558
     30 H4         -0.5275    1.7763    0.9067 H         1 <0>         0.1035
     31 H5          1.1344    1.2368   -2.0063 H         1 <0>         0.1339
     32 H6          2.2283    0.1425   -3.9203 H         1 <0>         0.1156
     33 H7          1.3136   -3.6837   -2.2735 H         1 <0>         0.1407
     34 H8         -0.8162   -2.9794   -0.2906 H         1 <0>         0.3875
     35 H9          6.4344   -1.5022   -6.0228 H         1 <0>         0.1092
     36 H10         5.9710    0.1994   -5.7874 H         1 <0>         0.0976
     37 H11         7.5117   -0.5946   -3.9939 H         1 <0>         0.0921
     38 H12         5.9169   -0.1432   -3.3373 H         1 <0>         0.0774
     39 H13         6.8542   -2.9702   -4.0245 H         1 <0>         0.1039
     40 H14         6.6233   -2.3069   -2.3867 H         1 <0>         0.1019
     41 H15         3.8802    0.1110   -6.8309 H         1 <0>         0.4442
     42 H16        -0.5332   -2.0259   -7.8452 H         1 <0>         0.1970
     43 H17        -0.1642   -0.7154   -9.5425 H         1 <0>         0.4018
     44 H18         0.7415    0.3832  -10.4346 H         1 <0>         0.4067
@<TRIPOS>BOND
     1    1    2 1
     2    1   28 1
     3    1   29 1
     4    1   30 1
     5    2    3 1
     6    3    8 ar
     7    3    4 ar
     8    4    5 ar
     9    4   31 1
    10    5    6 ar
    11    5   32 1
    12    6    7 ar
    13    6   10 1
    14    7    8 ar
    15    7   33 1
    16    8    9 1
    17    9   34 1
    18   10   11 1
    19   10   21 1
    20   10   12 1
    21   12   17 1
    22   12   13 2
    23   13   14 1
    24   13   19 1
    25   14   15 1
    26   14   35 1
    27   14   36 1
    28   15   16 1
    29   15   37 1
    30   15   38 1
    31   16   17 1
    32   16   39 1
    33   16   40 1
    34   17   18 2
    35   19   20 1
    36   19   41 1
    37   20   24 2
    38   20   21 1
    39   21   22 1
    40   22   23 2
    41   23   24 1
    42   23   42 1
    43   24   25 1
    44   25   26 2
    45   25   27 am
    46   27   43 1
    47   27   44 1
