@<TRIPOS>MOLECULE
ZINC16696698
   64    65     0     0     0
SMALL
USER_CHARGES
[(2S,3S,4R,5S,6S)-6-[(1S,2S)-2-chloro-1-[[(2R,4S)-1-methyl-4-propyl-pyrrolidine-2-carbonyl]amino]propyl]-4,5-dihydroxy-2-methylsulfanyl-tetrahydropyran-3-yl] dihydrogen phosphate
@<TRIPOS>ATOM
      1 C1          3.2082   12.5036    1.6279 C.3       1 <0>        -0.1590
      2 C2          2.3867   12.5391    0.3377 C.3       1 <0>        -0.1262
      3 C3          1.7711   11.1611    0.0869 C.3       1 <0>        -0.1197
      4 C4          0.9496   11.1966   -1.2033 C.3       1 <0>        -0.1073
      5 H1          1.5668   11.5359   -2.0352 H         1 <0>         0.1083
      6 C5          0.3619    9.8002   -1.5035 C.3       1 <0>        -0.1313
      7 C6         -1.1687   10.0010   -1.4930 C.3       1 <0>         0.0052
      8 H2         -1.5775    9.7562   -0.5126 H         1 <0>         0.1599
      9 C7         -0.2759   12.1200   -1.0334 C.3       1 <0>        -0.0037
     10 C8         -2.6821   11.9022   -1.3369 C.3       1 <0>        -0.0362
     11 C9         -1.8172    9.1546   -2.5579 C.2       1 <0>         0.5087
     12 O1         -2.1175    9.6472   -3.6247 O.2       1 <0>        -0.5480
     13 N1         -2.0636    7.8502   -2.3248 N.am      1 <0>        -0.6523
     14 C10        -2.6940    7.0274   -3.3600 C.3       1 <0>         0.1636
     15 H3         -2.3502    7.3525   -4.3419 H         1 <0>         0.1183
     16 C11        -2.3147    5.5605   -3.1468 C.3       1 <0>         0.0677
     17 H4         -2.7095    4.9602   -3.9665 H         1 <0>         0.1104
     18 C12        -0.7901    5.4283   -3.1049 C.3       1 <0>         0.1029
     19 H5         -0.3712    5.7382   -4.0623 H         1 <0>         0.0652
     20 C13        -0.4195    3.9674   -2.8313 C.3       1 <0>         0.0600
     21 H6         -0.7751    3.3416   -3.6498 H         1 <0>         0.0677
     22 C14        -1.0778    3.5218   -1.5220 C.3       1 <0>         0.1338
     23 H7         -0.6851    4.1142   -0.6956 H         1 <0>         0.0794
     24 C15        -2.5913    3.7276   -1.6250 C.3       1 <0>         0.1136
     25 H8         -3.0608    3.4521   -0.6807 H         1 <0>         0.1307
     26 O2         -2.8656    5.1006   -1.9110 O.3       1 <0>        -0.3324
     27 S1         -3.2540    2.6884   -2.9560 S.3       1 <0>        -0.2453
     28 C16        -5.0488    2.9284   -2.8479 C.3       1 <0>        -0.1286
     29 O3         -0.7984    2.1391   -1.2935 O.3       1 <0>        -0.7322
     30 P1         -0.0198    1.6058    0.0109 P.3       1 <0>         2.1168
     31 O4         -0.7125    2.0831    1.2285 O.2       1 <0>        -1.1598
     32 O5          1.0000    3.8477   -2.7176 O.3       1 <0>        -0.5664
     33 O6         -0.2674    6.2566   -2.0644 O.3       1 <0>        -0.5636
     34 C17        -4.2142    7.1785   -3.2761 C.3       1 <0>        -0.0276
     35 H9         -4.6833    6.5663   -4.0463 H         1 <0>         0.1109
     36 C18        -4.5935    8.6453   -3.4893 C.3       1 <0>        -0.1435
     37 Cl1        -4.7829    6.6407   -1.6518 Cl        1 <0>        -0.1369
     38 H10         2.5610   12.2373    2.4635 H         1 <0>         0.0572
     39 H11         4.0022   11.7629    1.5328 H         1 <0>         0.0608
     40 H12         3.6468   13.4854    1.8065 H         1 <0>         0.0568
     41 H13         3.0339   12.8055   -0.4980 H         1 <0>         0.0662
     42 H14         1.5927   13.2799    0.4328 H         1 <0>         0.0581
     43 H15         1.1239   10.8947    0.9225 H         1 <0>         0.0764
     44 H16         2.5651   10.4203   -0.0082 H         1 <0>         0.0885
     45 H17         0.6558    9.0895   -0.7311 H         1 <0>         0.1277
     46 H18         0.6915    9.4538   -2.4830 H         1 <0>         0.1063
     47 H19        -0.0727   13.1033   -1.4577 H         1 <0>         0.1380
     48 H20        -0.5431   12.2072    0.0197 H         1 <0>         0.1342
     49 H21        -2.7701   11.7515   -0.2610 H         1 <0>         0.1189
     50 H22        -2.7970   12.9617   -1.5660 H         1 <0>         0.1253
     51 H23        -3.4588   11.3336   -1.8483 H         1 <0>         0.1217
     52 H24        -1.8234    7.4562   -1.4715 H         1 <0>         0.4314
     53 H25        -5.5417    2.3358   -3.6187 H         1 <0>         0.0930
     54 H26        -5.3993    2.6110   -1.8659 H         1 <0>         0.0741
     55 H27        -5.2839    3.9827   -2.9943 H         1 <0>         0.0706
     56 H28         1.3056    2.9481   -2.5370 H         1 <0>         0.4091
     57 H29         0.6954    6.2220   -1.9804 H         1 <0>         0.3908
     58 H30        -4.2497    8.9705   -4.4712 H         1 <0>         0.0795
     59 H31        -5.6765    8.7530   -3.4295 H         1 <0>         0.0634
     60 H32        -4.1244    9.2575   -2.7190 H         1 <0>         0.0530
     61 N2         -1.3331   11.4248   -1.7765 N.4       1 <0>        -0.3819
     62 H33        -1.2264   11.5964   -2.7832 H         1 <0>         0.4359
     63 O7          0.0021   -0.0041    0.0020 O.3       1 <0>        -1.1709
     64 O8          1.4907    2.1630   -0.0006 O.3       1 <0>        -1.1869
@<TRIPOS>BOND
     1    1    2 1
     2    1   38 1
     3    1   39 1
     4    1   40 1
     5    2    3 1
     6    2   41 1
     7    2   42 1
     8    3    4 1
     9    3   43 1
    10    3   44 1
    11    4    5 1
    12    4    9 1
    13    4    6 1
    14    6    7 1
    15    6   45 1
    16    6   46 1
    17    7    8 1
    18    7   11 1
    19    7   61 1
    20    9   47 1
    21    9   48 1
    22    9   61 1
    23   10   49 1
    24   10   50 1
    25   10   51 1
    26   10   61 1
    27   11   12 2
    28   11   13 am
    29   13   14 1
    30   13   52 1
    31   14   15 1
    32   14   16 1
    33   14   34 1
    34   16   17 1
    35   16   26 1
    36   16   18 1
    37   18   19 1
    38   18   20 1
    39   18   33 1
    40   20   21 1
    41   20   22 1
    42   20   32 1
    43   22   23 1
    44   22   24 1
    45   22   29 1
    46   24   25 1
    47   24   26 1
    48   24   27 1
    49   27   28 1
    50   28   53 1
    51   28   54 1
    52   28   55 1
    53   29   30 1
    54   30   31 2
    55   30   63 1
    56   30   64 1
    57   32   56 1
    58   33   57 1
    59   34   35 1
    60   34   36 1
    61   34   37 1
    62   36   58 1
    63   36   59 1
    64   36   60 1
    65   61   62 1
