@<TRIPOS>MOLECULE
ZINC13151290
   37    39     0     0     0
SMALL
USER_CHARGES

@<TRIPOS>ATOM
      1 C1          1.5084    1.2818   -0.8748 C.3       1 <0>        -0.1397
      2 C2          1.0988   -0.1758   -0.6544 C.3       1 <0>         0.0129
      3 C3          2.0161   -0.8105    0.3928 C.3       1 <0>        -0.1507
      4 C4         -0.3494   -0.2299   -0.1638 C.3       1 <0>        -0.1452
      5 C5          1.2183   -0.9328   -1.9519 C.2       1 <0>         0.1366
      6 C6          0.8157   -2.2433   -2.1711 C.2       1 <0>        -0.2575
      7 C7          1.0930   -2.5596   -3.4719 C.2       1 <0>         0.2711
      8 N1          1.6513   -1.4799   -4.0420 N.pl3     1 <0>        -0.4485
      9 H1          1.9530   -1.4110   -4.9614 H         1 <0>         0.4463
     10 N2          1.7157   -0.4665   -3.0729 N.2       1 <0>        -0.2578
     11 O1          0.8151   -3.7753   -4.0051 O.3       1 <0>        -0.2313
     12 C8          0.0041   -4.5938   -3.3045 C.2       1 <0>         0.4385
     13 C9         -0.3321   -4.3931   -2.0110 C.2       1 <0>        -0.2557
     14 C10         0.1805   -3.2192   -1.2146 C.3       1 <0>         0.1332
     15 H2         -0.6478   -2.7381   -0.6945 H         1 <0>         0.0990
     16 C11         1.2046   -3.6909   -0.2147 C.2       1 <0>        -0.1056
     17 C12         0.8647   -3.8499    1.1156 C.2       1 <0>        -0.1491
     18 C13         1.8096   -4.2757    1.9892 C.2       1 <0>        -0.1691
     19 S1          3.2334   -4.4663    0.9291 S.3       1 <0>         0.0296
     20 C14         2.4714   -3.9708   -0.6075 C.2       1 <0>        -0.1566
     21 C15        -1.2070   -5.3299   -1.3727 C.1       1 <0>         0.2707
     22 N3         -1.9011   -6.0731   -0.8663 N.1       1 <0>        -0.4382
     23 N4         -0.5104   -5.6950   -3.9426 N.pl3     1 <0>        -0.8318
     24 H3          2.5401    1.3204   -1.2243 H         1 <0>         0.0610
     25 H4          0.8549    1.7341   -1.6208 H         1 <0>         0.0588
     26 H5          1.4220    1.8294    0.0637 H         1 <0>         0.0614
     27 H6          2.0489   -0.1769    1.2790 H         1 <0>         0.0630
     28 H7          1.6324   -1.7942    0.6634 H         1 <0>         0.0773
     29 H8          3.0205   -0.9128   -0.0182 H         1 <0>         0.0558
     30 H9         -1.0155    0.1012   -0.9605 H         1 <0>         0.0586
     31 H10        -0.5997   -1.2528    0.1174 H         1 <0>         0.0646
     32 H11        -0.4647    0.4233    0.7011 H         1 <0>         0.0675
     33 H12        -0.1387   -3.6376    1.4541 H         1 <0>         0.1329
     34 H13         1.7236   -4.4533    3.0510 H         1 <0>         0.1849
     35 H14         2.9069   -3.9092   -1.5938 H         1 <0>         0.1742
     36 H15        -0.2876   -5.8657   -4.8711 H         1 <0>         0.4111
     37 H16        -1.0968   -6.3024   -3.4650 H         1 <0>         0.4277
@<TRIPOS>BOND
     1    1    2 1
     2    1   24 1
     3    1   25 1
     4    1   26 1
     5    2    3 1
     6    2    4 1
     7    2    5 1
     8    3   27 1
     9    3   28 1
    10    3   29 1
    11    4   30 1
    12    4   31 1
    13    4   32 1
    14    5   10 2
    15    5    6 1
    16    6   14 1
    17    6    7 2
    18    7    8 1
    19    7   11 1
    20    8    9 1
    21    8   10 1
    22   11   12 1
    23   12   13 2
    24   12   23 1
    25   13   14 1
    26   13   21 1
    27   14   15 1
    28   14   16 1
    29   16   20 2
    30   16   17 1
    31   17   18 2
    32   17   33 1
    33   18   19 1
    34   18   34 1
    35   19   20 1
    36   20   35 1
    37   21   22 3
    38   23   36 1
    39   23   37 1
