@<TRIPOS>MOLECULE
ZINC66223626
   55    58     0     0     0
SMALL
USER_CHARGES

@<TRIPOS>ATOM
      1 C1         -0.1129    1.5069    0.0561 C.3       1 <0>         0.0616
      2 N1         -0.6571    0.1500    0.1494 N.pl3     1 <0>        -0.4159
      3 C2         -1.3315   -0.5144   -0.8187 C.2       1 <0>        -0.0179
      4 C3         -1.6528   -1.7338   -0.3181 C.2       1 <0>        -0.0238
      5 N2         -1.1861   -1.8125    0.9253 N.2       1 <0>        -0.4363
      6 C4         -0.5743   -0.6859    1.2281 C.2       1 <0>         0.1097
      7 C5          0.0828   -0.3782    2.5095 C.2       1 <0>         0.4887
      8 O1          0.6958    0.6640    2.6440 O.2       1 <0>        -0.4524
      9 C6         -0.0023   -1.3339    3.6301 C.ar      1 <0>        -0.1652
     10 C7         -0.6027   -2.5830    3.4421 C.ar      1 <0>        -0.0437
     11 C8         -0.6799   -3.4722    4.4895 C.ar      1 <0>        -0.1528
     12 C9         -0.1612   -3.1296    5.7353 C.ar      1 <0>         0.1637
     13 C10         0.4372   -1.8870    5.9260 C.ar      1 <0>        -0.1379
     14 C11         0.5226   -0.9951    4.8815 C.ar      1 <0>        -0.0375
     15 N3         -0.2414   -4.0315    6.7929 N.am      1 <0>        -0.6361
     16 C12        -0.4343   -3.5819    8.0488 C.2       1 <0>         0.5119
     17 O2         -0.4584   -2.3887    8.2691 O.2       1 <0>        -0.4887
     18 C13        -0.6185   -4.5522    9.1693 C.2       1 <0>         0.5342
     19 O3         -0.5944   -5.7454    8.9489 O.2       1 <0>        -0.4947
     20 N4         -0.8114   -4.1026   10.4251 N.am      1 <0>        -0.5971
     21 C14        -0.8691   -2.6905   10.8303 C.3       1 <0>         0.1045
     22 C15        -1.1330   -2.6605   12.3505 C.3       1 <0>        -0.1464
     23 C16        -1.7721   -4.0485   12.6197 C.3       1 <0>         0.0082
     24 H1         -2.8383   -4.0382   12.3931 H         1 <0>         0.1567
     25 C17        -1.0060   -4.9454   11.6190 C.3       1 <0>         0.0970
     26 N5         -1.5352   -4.4776   14.0045 N.4       1 <0>        -0.3865
     27 C18        -2.2012   -3.5461   14.9505 C.3       1 <0>        -0.0040
     28 C19        -2.3508   -4.3951   16.2379 C.3       1 <0>        -0.1452
     29 C20        -2.6783   -5.8023   15.6879 C.3       1 <0>        -0.1442
     30 C21        -2.1515   -5.8011   14.2409 C.3       1 <0>        -0.0120
     31 H2          0.9060    1.4642   -0.3288 H         1 <0>         0.0872
     32 H3         -0.7310    2.1008   -0.6172 H         1 <0>         0.0926
     33 H4         -0.1088    1.9655    1.0449 H         1 <0>         0.1031
     34 H5         -1.5697   -0.1430   -1.8044 H         1 <0>         0.1877
     35 H6         -2.1952   -2.5084   -0.8398 H         1 <0>         0.1836
     36 H7         -1.0056   -2.8492    2.4761 H         1 <0>         0.1834
     37 H8         -1.1438   -4.4368    4.3451 H         1 <0>         0.1372
     38 H9          0.8383   -1.6243    6.8937 H         1 <0>         0.1442
     39 H10         0.9905   -0.0330    5.0290 H         1 <0>         0.1403
     40 H11        -0.1584   -4.9834    6.6259 H         1 <0>         0.4269
     41 H12         0.0801   -2.2024   10.6092 H         1 <0>         0.1009
     42 H13        -1.6792   -2.1864   10.3034 H         1 <0>         0.0992
     43 H14        -0.1991   -2.5525   12.9020 H         1 <0>         0.1008
     44 H15        -1.8276   -1.8601   12.6056 H         1 <0>         0.1163
     45 H16        -1.5970   -5.8265   11.3692 H         1 <0>         0.1109
     46 H17        -0.0431   -5.2394   12.0368 H         1 <0>         0.0930
     47 H18        -1.5752   -2.6732   15.1358 H         1 <0>         0.1376
     48 H19        -3.1783   -3.2465   14.5716 H         1 <0>         0.1355
     49 H20        -1.4179   -4.4087   16.8015 H         1 <0>         0.0991
     50 H21        -3.1691   -4.0215   16.8534 H         1 <0>         0.1184
     51 H22        -2.1688   -6.5661   16.2754 H         1 <0>         0.1065
     52 H23        -3.7550   -5.9714   15.6984 H         1 <0>         0.1049
     53 H24        -2.9762   -5.9562   13.5453 H         1 <0>         0.1318
     54 H25        -1.4051   -6.5858   14.1168 H         1 <0>         0.1344
     55 H26        -0.5446   -4.5165   14.1925 H         1 <0>         0.4268
@<TRIPOS>BOND
     1    1    2 1
     2    1   31 1
     3    1   32 1
     4    1   33 1
     5    2    6 1
     6    2    3 1
     7    3    4 2
     8    3   34 1
     9    4    5 1
    10    4   35 1
    11    5    6 2
    12    6    7 1
    13    7    8 2
    14    7    9 1
    15    9   14 ar
    16    9   10 ar
    17   10   11 ar
    18   10   36 1
    19   11   12 ar
    20   11   37 1
    21   12   13 ar
    22   12   15 1
    23   13   14 ar
    24   13   38 1
    25   14   39 1
    26   15   16 am
    27   15   40 1
    28   16   17 2
    29   16   18 1
    30   18   19 2
    31   18   20 am
    32   20   25 1
    33   20   21 1
    34   21   22 1
    35   21   41 1
    36   21   42 1
    37   22   23 1
    38   22   43 1
    39   22   44 1
    40   23   24 1
    41   23   25 1
    42   23   26 1
    43   25   45 1
    44   25   46 1
    45   26   30 1
    46   26   27 1
    47   26   55 1
    48   27   28 1
    49   27   47 1
    50   27   48 1
    51   28   29 1
    52   28   49 1
    53   28   50 1
    54   29   30 1
    55   29   51 1
    56   29   52 1
    57   30   53 1
    58   30   54 1
