@<TRIPOS>MOLECULE
ZINC31256493
   49    51     0     0     0
SMALL
USER_CHARGES

@<TRIPOS>ATOM
      1 C1         -0.0203    1.5669   -0.0265 C.3       1 <0>        -0.1862
      2 C2         -0.0059    0.0370   -0.0269 C.3       1 <0>         0.1339
      3 C3          0.7271   -0.4664    1.2182 C.3       1 <0>        -0.1856
      4 C4         -1.4435   -0.4865   -0.0189 C.3       1 <0>        -0.1411
      5 O1          0.6657   -0.4327   -1.1975 O.3       1 <0>        -0.3542
      6 C5          1.9492   -0.0588   -1.3574 C.2       1 <0>         0.6561
      7 O2          2.4845    0.6470   -0.5257 O.2       1 <0>        -0.5645
      8 N1          2.6402   -0.4675   -2.4400 N.am      1 <0>        -0.5951
      9 C6          2.0049   -1.3161   -3.4572 C.3       1 <0>         0.1078
     10 C7          2.8697   -2.5625   -3.6697 C.3       1 <0>        -0.1358
     11 C8          4.2988   -2.1347   -4.0114 C.3       1 <0>        -0.1025
     12 C9          4.8852   -1.3327   -2.8474 C.3       1 <0>        -0.1215
     13 H1          4.8734   -1.9418   -1.9435 H         1 <0>         0.1104
     14 C10         4.0415   -0.0677   -2.6283 C.3       1 <0>         0.1367
     15 C11         6.3037   -0.9402   -3.1710 C.2       1 <0>         0.5244
     16 O3          6.7977   -1.2694   -4.2287 O.2       1 <0>        -0.5085
     17 N2          7.0234   -0.2235   -2.2851 N.am      1 <0>        -0.6703
     18 C12         8.3709    0.0588   -2.5428 C.ar      1 <0>         0.1651
     19 C13         9.2846    0.0995   -1.4959 C.ar      1 <0>        -0.1278
     20 C14        10.6139    0.3767   -1.7438 C.ar      1 <0>        -0.0561
     21 C15        11.0423    0.6158   -3.0405 C.ar      1 <0>         0.0215
     22 C16        10.1271    0.5754   -4.0924 C.ar      1 <0>         0.0893
     23 C17         8.7940    0.2919   -3.8431 C.ar      1 <0>        -0.1054
     24 N3         10.8446    0.8525   -5.2559 N.am      1 <0>        -0.6459
     25 H2         10.4839    0.8969   -6.1552 H         1 <0>         0.4449
     26 C18        12.1303    1.0480   -4.9023 C.2       1 <0>         0.6401
     27 O4         13.0370    1.3113   -5.6686 O.2       1 <0>        -0.4835
     28 O5         12.2550    0.9072   -3.5735 O.3       1 <0>        -0.2339
     29 H3          1.0039    1.9399   -0.0322 H         1 <0>         0.0871
     30 H4         -0.5425    1.9256   -0.9135 H         1 <0>         0.0594
     31 H5         -0.5325    1.9253    0.8664 H         1 <0>         0.0711
     32 H6          0.2149   -0.1081    2.1111 H         1 <0>         0.0710
     33 H7          0.7374   -1.5564    1.2179 H         1 <0>         0.0592
     34 H8          1.7513   -0.0934    1.2125 H         1 <0>         0.0870
     35 H9         -1.9657   -0.1279   -0.9059 H         1 <0>         0.0669
     36 H10        -1.4332   -1.5765   -0.0192 H         1 <0>         0.0669
     37 H11        -1.9557   -0.1282    0.8740 H         1 <0>         0.0816
     38 H12         1.0128   -1.6133   -3.1174 H         1 <0>         0.0968
     39 H13         1.9225   -0.7645   -4.3937 H         1 <0>         0.0746
     40 H14         2.8770   -3.1601   -2.7582 H         1 <0>         0.0708
     41 H15         2.4611   -3.1535   -4.4894 H         1 <0>         0.0865
     42 H16         4.9105   -3.0196   -4.1873 H         1 <0>         0.0795
     43 H17         4.2880   -1.5167   -4.9092 H         1 <0>         0.0767
     44 H18         4.1218    0.5836   -3.4986 H         1 <0>         0.0811
     45 H19         4.3936    0.4590   -1.7414 H         1 <0>         0.1026
     46 H20         6.6082    0.0969   -1.4691 H         1 <0>         0.4182
     47 H21         8.9531   -0.0861   -0.4850 H         1 <0>         0.1481
     48 H22        11.3204    0.4077   -0.9275 H         1 <0>         0.1493
     49 H23         8.0861    0.2561   -4.6579 H         1 <0>         0.1534
@<TRIPOS>BOND
     1    1    2 1
     2    1   29 1
     3    1   30 1
     4    1   31 1
     5    2    3 1
     6    2    4 1
     7    2    5 1
     8    3   32 1
     9    3   33 1
    10    3   34 1
    11    4   35 1
    12    4   36 1
    13    4   37 1
    14    5    6 1
    15    6    7 2
    16    6    8 am
    17    8   14 1
    18    8    9 1
    19    9   10 1
    20    9   38 1
    21    9   39 1
    22   10   11 1
    23   10   40 1
    24   10   41 1
    25   11   12 1
    26   11   42 1
    27   11   43 1
    28   12   13 1
    29   12   14 1
    30   12   15 1
    31   14   44 1
    32   14   45 1
    33   15   16 2
    34   15   17 am
    35   17   18 1
    36   17   46 1
    37   18   23 ar
    38   18   19 ar
    39   19   20 ar
    40   19   47 1
    41   20   21 ar
    42   20   48 1
    43   21   28 1
    44   21   22 ar
    45   22   23 ar
    46   22   24 1
    47   23   49 1
    48   24   25 1
    49   24   26 am
    50   26   27 2
    51   26   28 1
