@<TRIPOS>MOLECULE
ZINC09087066
   56    61     0     0     0
SMALL
USER_CHARGES
(3aR,4S,8aR,8bS)-7'-ethyl-2-(4-nitrophenyl)spiro[3a,6,7,8,8a,8b-hexahydropyrrolo[3,4-f]pyrrolizine-4,3'-indoline]-1,2',3-trione
@<TRIPOS>ATOM
      1 C1         -6.2102    5.8660   -2.5411 C.3       1 <0>        -0.1529
      2 C2         -6.3419    4.7845   -3.6153 C.3       1 <0>        -0.0944
      3 C3         -5.3753    3.6659   -3.3231 C.ar      1 <0>        -0.0740
      4 C4         -4.1353    3.6528   -3.9278 C.ar      1 <0>        -0.0418
      5 C5         -3.2414    2.6312   -3.6660 C.ar      1 <0>        -0.1143
      6 C6         -3.5916    1.6167   -2.7922 C.ar      1 <0>        -0.0608
      7 C7         -4.8275    1.6261   -2.1859 C.ar      1 <0>        -0.2107
      8 C8         -5.7362    2.6487   -2.4430 C.ar      1 <0>         0.1811
      9 N1         -6.9125    2.4426   -1.7192 N.am      1 <0>        -0.6339
     10 C9         -6.8597    1.3232   -0.9719 C.2       1 <0>         0.5423
     11 O1         -7.7323    0.8955   -0.2462 O.2       1 <0>        -0.4427
     12 C10        -5.5083    0.7059   -1.2118 C.3       1 <0>         0.0972
     13 C11        -4.7119    0.5839    0.0925 C.3       1 <0>        -0.1232
     14 H1         -5.3504    0.6022    0.9758 H         1 <0>         0.1769
     15 C12        -3.9225   -0.7461   -0.0517 C.3       1 <0>        -0.1346
     16 H2         -4.1224   -1.4442    0.7612 H         1 <0>         0.1794
     17 C13        -4.3131   -1.3165   -1.4277 C.3       1 <0>         0.0454
     18 H3         -3.5551   -1.1121   -2.1838 H         1 <0>         0.1636
     19 C14        -6.6235   -1.4259   -0.9649 C.3       1 <0>        -0.0174
     20 C15        -6.1406   -2.8893   -1.0183 C.3       1 <0>        -0.1420
     21 C16        -4.6289   -2.8043   -1.3063 C.3       1 <0>        -0.1374
     22 C17        -2.4802   -0.2940   -0.0864 C.2       1 <0>         0.5305
     23 O2         -1.5192   -1.0254   -0.1923 O.2       1 <0>        -0.4203
     24 N2         -2.4295    1.0389    0.0187 N.am      1 <0>        -0.5254
     25 C18        -3.6232    1.6329    0.1308 C.2       1 <0>         0.5425
     26 O3         -3.8040    2.8264    0.2429 O.2       1 <0>        -0.4147
     27 C19        -1.2237    1.7542    0.0174 C.ar      1 <0>         0.1486
     28 C20        -0.4392    1.7929   -1.1273 C.ar      1 <0>        -0.0977
     29 C21         0.7451    2.5036   -1.1275 C.ar      1 <0>        -0.0389
     30 C22         1.1527    3.1710    0.0129 C.ar      1 <0>        -0.0235
     31 C23         0.3763    3.1296    1.1563 C.ar      1 <0>        -0.0369
     32 C24        -0.8091    2.4205    1.1625 C.ar      1 <0>        -0.0940
     33 N3          2.4225    3.9318    0.0094 N.pl3     1 <0>         0.0187
     34 O4          3.1071    3.9694   -0.9972 O.2       1 <0>        -0.1409
     35 O5          2.7826    4.5201    1.0133 O.3       1 <0>        -0.1405
     36 H4         -6.9093    6.6751   -2.7525 H         1 <0>         0.0713
     37 H5         -6.4351    5.4374   -1.5645 H         1 <0>         0.0535
     38 H6         -5.1924    6.2561   -2.5411 H         1 <0>         0.0635
     39 H7         -6.1170    5.2132   -4.5919 H         1 <0>         0.0913
     40 H8         -7.3597    4.3945   -3.6154 H         1 <0>         0.0751
     41 H9         -3.8616    4.4445   -4.6095 H         1 <0>         0.1514
     42 H10        -2.2722    2.6246   -4.1425 H         1 <0>         0.1488
     43 H11        -2.8950    0.8177   -2.5855 H         1 <0>         0.1232
     44 H12        -7.6788    3.0365   -1.7511 H         1 <0>         0.4381
     45 H13        -6.6442   -1.0720    0.0659 H         1 <0>         0.1399
     46 H14        -7.6119   -1.3372   -1.4158 H         1 <0>         0.1509
     47 H15        -6.3163   -3.3808   -0.0614 H         1 <0>         0.1195
     48 H16        -6.6500   -3.4268   -1.8181 H         1 <0>         0.1082
     49 H17        -4.0630   -3.2387   -0.4822 H         1 <0>         0.1229
     50 H18        -4.3929   -3.3190   -2.2377 H         1 <0>         0.1151
     51 H19        -0.7569    1.2715   -2.0182 H         1 <0>         0.1489
     52 H20         1.3536    2.5378   -2.0191 H         1 <0>         0.1691
     53 H21         0.6971    3.6518    2.0455 H         1 <0>         0.1695
     54 H22        -1.4149    2.3882    2.0560 H         1 <0>         0.1536
     55 N4         -5.5904   -0.6846   -1.7037 N.4       1 <0>        -0.3683
     56 H23        -5.7951   -0.6957   -2.7098 H         1 <0>         0.4415
@<TRIPOS>BOND
     1    1    2 1
     2    1   36 1
     3    1   37 1
     4    1   38 1
     5    2    3 1
     6    2   39 1
     7    2   40 1
     8    3    8 ar
     9    3    4 ar
    10    4    5 ar
    11    4   41 1
    12    5    6 ar
    13    5   42 1
    14    6    7 ar
    15    6   43 1
    16    7   12 1
    17    7    8 ar
    18    8    9 1
    19    9   10 am
    20    9   44 1
    21   10   11 2
    22   10   12 1
    23   12   13 1
    24   12   55 1
    25   13   14 1
    26   13   25 1
    27   13   15 1
    28   15   16 1
    29   15   17 1
    30   15   22 1
    31   17   18 1
    32   17   21 1
    33   17   55 1
    34   19   20 1
    35   19   45 1
    36   19   46 1
    37   19   55 1
    38   20   21 1
    39   20   47 1
    40   20   48 1
    41   21   49 1
    42   21   50 1
    43   22   23 2
    44   22   24 am
    45   24   25 am
    46   24   27 1
    47   25   26 2
    48   27   32 ar
    49   27   28 ar
    50   28   29 ar
    51   28   51 1
    52   29   30 ar
    53   29   52 1
    54   30   31 ar
    55   30   33 1
    56   31   32 ar
    57   31   53 1
    58   32   54 1
    59   33   34 2
    60   33   35 1
    61   55   56 1
