@<TRIPOS>MOLECULE
ZINC50753039
   34    35     0     0     0
SMALL
USER_CHARGES

@<TRIPOS>ATOM
      1 C1          0.0664    1.5135   -0.0652 C.3       1 <0>        -0.1395
      2 C2          0.0137   -0.0144   -0.0055 C.3       1 <0>         0.1086
      3 H1          0.4391   -0.4323   -0.9179 H         1 <0>         0.0818
      4 C3         -1.4407   -0.4753    0.1443 C.3       1 <0>         0.0515
      5 O1         -1.4654   -1.8842    0.3853 O.3       1 <0>        -0.3815
      6 C4         -0.8198   -2.2821    1.5972 C.3       1 <0>         0.0442
      7 C5          0.6663   -1.9137    1.5218 C.3       1 <0>         0.0410
      8 N1          0.7749   -0.4914    1.1600 N.am      1 <0>        -0.5933
      9 C6          1.5478    0.3497    1.8753 C.2       1 <0>         0.5676
     10 O2          1.5191    1.5431    1.6480 O.2       1 <0>        -0.4976
     11 C7          2.4318   -0.1805    2.9382 C.ar      1 <0>         0.1375
     12 C8          3.1130    0.7021    3.7728 C.ar      1 <0>        -0.0945
     13 C9          3.9395    0.1932    4.7671 C.ar      1 <0>        -0.0282
     14 C10         4.0561   -1.1786    4.8921 C.ar      1 <0>        -0.1997
     15 C11         3.3457   -2.0063    4.0228 C.ar      1 <0>         0.3989
     16 N2          2.5637   -1.4940    3.0904 N.ar      1 <0>        -0.5051
     17 N3          3.4586   -3.3869    4.1426 N.pl3     1 <0>        -0.7234
     18 C12         4.3200   -3.9643    5.1775 C.3       1 <0>         0.0909
     19 Cl1         2.9321    2.4170    3.5731 Cl        1 <0>        -0.0210
     20 H2          1.0904    1.8345   -0.2565 H         1 <0>         0.0770
     21 H3         -0.5814    1.8684   -0.8668 H         1 <0>         0.0504
     22 H4         -0.2722    1.9262    0.8851 H         1 <0>         0.0736
     23 H5         -1.9032    0.0457    0.9825 H         1 <0>         0.0567
     24 H6         -1.9892   -0.2529   -0.7710 H         1 <0>         0.1065
     25 H7         -1.2801   -1.7677    2.4408 H         1 <0>         0.0517
     26 H8         -0.9217   -3.3595    1.7272 H         1 <0>         0.1044
     27 H9          1.1361   -2.0830    2.4908 H         1 <0>         0.1551
     28 H10         1.1577   -2.5234    0.7636 H         1 <0>         0.0716
     29 H11         4.4796    0.8552    5.4278 H         1 <0>         0.1530
     30 H12         4.6908   -1.6049    5.6548 H         1 <0>         0.1471
     31 H13         2.9671   -3.9677    3.5410 H         1 <0>         0.4096
     32 H14         5.3457   -3.6284    5.0255 H         1 <0>         0.0602
     33 H15         3.9739   -3.6422    6.1596 H         1 <0>         0.0603
     34 H16         4.2811   -5.0520    5.1173 H         1 <0>         0.0845
@<TRIPOS>BOND
     1    1    2 1
     2    1   20 1
     3    1   21 1
     4    1   22 1
     5    2    3 1
     6    2    8 1
     7    2    4 1
     8    4    5 1
     9    4   23 1
    10    4   24 1
    11    5    6 1
    12    6    7 1
    13    6   25 1
    14    6   26 1
    15    7    8 1
    16    7   27 1
    17    7   28 1
    18    8    9 am
    19    9   10 2
    20    9   11 1
    21   11   16 ar
    22   11   12 ar
    23   12   13 ar
    24   12   19 1
    25   13   14 ar
    26   13   29 1
    27   14   15 ar
    28   14   30 1
    29   15   16 ar
    30   15   17 1
    31   17   18 1
    32   17   31 1
    33   18   32 1
    34   18   33 1
    35   18   34 1
