@<TRIPOS>MOLECULE
ZINC04766690
   68    71     0     0     0
SMALL
USER_CHARGES
O3-cyclopentyl O6-methyl (4R,6R,7S)-4-(2,5-dimethoxyphenyl)-2,7-dimethyl-5-oxo-4,6,7,8-tetrahydro-1H-quinoline-3,6-dicarboxylate
@<TRIPOS>ATOM
      1 C1          0.3327   -8.3538    1.5070 C.3       1 <0>        -0.1595
      2 C2          0.1103   -6.9825    0.8659 C.3       1 <0>        -0.0639
      3 H1         -0.4367   -7.1178   -0.0788 H         1 <0>         0.0955
      4 C3         -0.6950   -6.0947    1.8172 C.3       1 <0>        -0.0919
      5 C4         -0.8744   -4.7277    1.2045 C.2       1 <0>         0.2266
      6 C5          0.0554   -4.2105    0.3738 C.2       1 <0>        -0.2771
      7 C6         -0.1348   -2.8445   -0.2401 C.3       1 <0>         0.0969
      8 H2          0.8198   -2.3001   -0.1910 H         1 <0>         0.1025
      9 C7         -1.1673   -2.0575    0.5124 C.2       1 <0>        -0.2271
     10 C8         -2.0429   -2.6619    1.3339 C.2       1 <0>         0.1863
     11 N1         -2.0031   -4.0166    1.5126 N.pl3     1 <0>        -0.6438
     12 C9         -3.0755   -1.8408    2.0623 C.3       1 <0>        -0.1353
     13 C10        -1.2238   -0.6536    0.3498 C.2       1 <0>         0.5366
     14 O1         -0.3821    0.0537    0.8712 O.2       1 <0>        -0.4989
     15 O2         -2.2114   -0.0985   -0.3835 O.3       1 <0>        -0.3463
     16 C11        -2.2070    1.3253   -0.5055 C.3       1 <0>         0.0744
     17 C12        -3.0868    1.9528    0.5953 C.3       1 <0>        -0.1429
     18 C13        -3.7696    3.1548   -0.1032 C.3       1 <0>        -0.1228
     19 C14        -4.0586    2.6062   -1.5226 C.3       1 <0>        -0.1173
     20 C15        -2.8248    1.7408   -1.8522 C.3       1 <0>        -0.1182
     21 C16        -0.5769   -2.9980   -1.6726 C.ar      1 <0>        -0.0663
     22 C17        -1.7644   -3.6412   -1.9639 C.ar      1 <0>        -0.0934
     23 C18        -2.1730   -3.7791   -3.2819 C.ar      1 <0>         0.0880
     24 C19        -1.3851   -3.2792   -4.3083 C.ar      1 <0>        -0.1678
     25 C20        -0.1957   -2.6404   -4.0174 C.ar      1 <0>        -0.1725
     26 C21         0.2110   -2.4986   -2.6987 C.ar      1 <0>         0.1132
     27 O3          1.3821   -1.8697   -2.4122 O.3       1 <0>        -0.3020
     28 C22         2.1431   -1.3802   -3.5183 C.3       1 <0>         0.0263
     29 O4         -3.3441   -4.4080   -3.5684 O.3       1 <0>        -0.3184
     30 C23        -3.7008   -4.5183   -4.9478 C.3       1 <0>         0.0254
     31 C24         1.2192   -4.9297    0.0494 C.2       1 <0>         0.4069
     32 O5          2.0445   -4.4282   -0.6878 O.2       1 <0>        -0.4311
     33 C25         1.4607   -6.3092    0.5989 C.3       1 <0>        -0.1287
     34 H3          2.0474   -6.2324    1.5262 H         1 <0>         0.1416
     35 C26         2.2402   -7.1218   -0.4027 C.2       1 <0>         0.4792
     36 O6          1.7663   -8.1358   -0.8578 O.2       1 <0>        -0.5002
     37 O7          3.4608   -6.7190   -0.7892 O.3       1 <0>        -0.3378
     38 C27         4.1538   -7.5508   -1.7569 C.3       1 <0>         0.0322
     39 H4         -0.6396   -8.8321    1.6962 H         1 <0>         0.0656
     40 H5          0.8721   -8.2309    2.4577 H         1 <0>         0.0575
     41 H6          0.9255   -8.9842    0.8279 H         1 <0>         0.0812
     42 H7         -1.6815   -6.5478    1.9947 H         1 <0>         0.0999
     43 H8         -0.1581   -5.9993    2.7725 H         1 <0>         0.1068
     44 H9         -2.8890   -4.5351    1.9079 H         1 <0>         0.4451
     45 H10        -3.6984   -2.5018    2.6829 H         1 <0>         0.0815
     46 H11        -3.7104   -1.3182    1.3317 H         1 <0>         0.0961
     47 H12        -2.5714   -1.1031    2.7040 H         1 <0>         0.0877
     48 H13        -1.1441    1.5948   -0.4178 H         1 <0>         0.0863
     49 H14        -3.8180    1.2105    0.9479 H         1 <0>         0.0766
     50 H15        -2.4519    2.2700    1.4358 H         1 <0>         0.0724
     51 H16        -4.6857    3.4242    0.4429 H         1 <0>         0.0719
     52 H17        -3.0818    4.0132   -0.1114 H         1 <0>         0.0708
     53 H18        -4.9854    2.0140   -1.5051 H         1 <0>         0.0707
     54 H19        -4.1732    3.4458   -2.2239 H         1 <0>         0.0713
     55 H20        -2.0871    2.3144   -2.4326 H         1 <0>         0.0771
     56 H21        -3.1155    0.8417   -2.4153 H         1 <0>         0.0820
     57 H22        -2.3760   -4.0337   -1.1650 H         1 <0>         0.1283
     58 H23        -1.7015   -3.3898   -5.3350 H         1 <0>         0.1284
     59 H24         0.4180   -2.2515   -4.8165 H         1 <0>         0.1297
     60 H25         3.0594   -0.8973   -3.1479 H         1 <0>         0.1004
     61 H26         1.5442   -0.6482   -4.0801 H         1 <0>         0.0512
     62 H27         2.4114   -2.2183   -4.1783 H         1 <0>         0.0537
     63 H28        -4.6629   -5.0441   -5.0368 H         1 <0>         0.1002
     64 H29        -2.9234   -5.0828   -5.4835 H         1 <0>         0.0538
     65 H30        -3.7907   -3.5128   -5.3848 H         1 <0>         0.0543
     66 H31         5.1351   -7.1088   -1.9843 H         1 <0>         0.1040
     67 H32         3.5577   -7.6145   -2.6792 H         1 <0>         0.0632
     68 H33         4.2935   -8.5592   -1.3402 H         1 <0>         0.0637
@<TRIPOS>BOND
     1    1    2 1
     2    1   39 1
     3    1   40 1
     4    1   41 1
     5    2    3 1
     6    2   33 1
     7    2    4 1
     8    4    5 1
     9    4   42 1
    10    4   43 1
    11    5   11 1
    12    5    6 2
    13    6    7 1
    14    6   31 1
    15    7    8 1
    16    7    9 1
    17    7   21 1
    18    9   10 2
    19    9   13 1
    20   10   11 1
    21   10   12 1
    22   11   44 1
    23   12   45 1
    24   12   46 1
    25   12   47 1
    26   13   14 2
    27   13   15 1
    28   15   16 1
    29   16   20 1
    30   16   17 1
    31   16   48 1
    32   17   18 1
    33   17   49 1
    34   17   50 1
    35   18   19 1
    36   18   51 1
    37   18   52 1
    38   19   20 1
    39   19   53 1
    40   19   54 1
    41   20   55 1
    42   20   56 1
    43   21   26 ar
    44   21   22 ar
    45   22   23 ar
    46   22   57 1
    47   23   24 ar
    48   23   29 1
    49   24   25 ar
    50   24   58 1
    51   25   26 ar
    52   25   59 1
    53   26   27 1
    54   27   28 1
    55   28   60 1
    56   28   61 1
    57   28   62 1
    58   29   30 1
    59   30   63 1
    60   30   64 1
    61   30   65 1
    62   31   32 2
    63   31   33 1
    64   33   34 1
    65   33   35 1
    66   35   36 2
    67   35   37 1
    68   37   38 1
    69   38   66 1
    70   38   67 1
    71   38   68 1
