@<TRIPOS>MOLECULE
ZINC13638010
   50    53     0     0     0
SMALL
USER_CHARGES
4-[(3aS,4R,9bS)-8-sec-butoxy-3a,4,5,9b-tetrahydro-3H-cyclopenta[c]quinolin-4-yl]phenol
@<TRIPOS>ATOM
      1 C1          3.1001    9.3994    0.5232 C.3       1 <0>        -0.1538
      2 C2          1.8124   10.1341    0.9013 C.3       1 <0>        -0.1195
      3 C3          0.6076    9.2427    0.5935 C.3       1 <0>         0.0832
      4 H1          0.6412    8.9344   -0.4515 H         1 <0>         0.0709
      5 C4         -0.6831   10.0220    0.8539 C.3       1 <0>        -0.1816
      6 O1          0.6436    8.0866    1.4326 O.3       1 <0>        -0.3101
      7 C5          0.0031    6.9753    0.9806 C.ar      1 <0>         0.0850
      8 C6         -0.7417    7.0295   -0.1885 C.ar      1 <0>        -0.1668
      9 C7         -1.3974    5.9043   -0.6440 C.ar      1 <0>        -0.1535
     10 C8         -1.3174    4.7100    0.0614 C.ar      1 <0>         0.1798
     11 C9         -0.5546    4.6571    1.2329 C.ar      1 <0>        -0.0943
     12 C10         0.0927    5.7857    1.6875 C.ar      1 <0>        -0.1023
     13 C11        -0.4624    3.3553    1.9293 C.3       1 <0>        -0.0399
     14 H2          0.2942    2.7537    1.4257 H         1 <0>         0.0983
     15 C12        -0.2023    3.2643    3.3892 C.2       1 <0>        -0.1480
     16 C13        -0.8081    2.1819    3.8615 C.2       1 <0>        -0.1689
     17 C14        -1.5619    1.4712    2.7358 C.3       1 <0>        -0.0915
     18 C15        -1.8312    2.6290    1.7655 C.3       1 <0>        -0.1000
     19 H3         -2.6641    3.2539    2.0879 H         1 <0>         0.0972
     20 C16        -1.9339    2.2868    0.2900 C.3       1 <0>         0.2077
     21 H4         -2.8342    1.7029    0.0984 H         1 <0>         0.1000
     22 N1         -2.0070    3.5850   -0.4154 N.pl3     1 <0>        -0.7468
     23 C17        -0.7138    1.5213   -0.1532 C.ar      1 <0>        -0.1086
     24 C18         0.3870    2.2003   -0.6420 C.ar      1 <0>        -0.0841
     25 C19         1.5045    1.5006   -1.0543 C.ar      1 <0>        -0.1469
     26 C20         1.5217    0.1155   -0.9775 C.ar      1 <0>         0.1069
     27 C21         0.4158   -0.5634   -0.4867 C.ar      1 <0>        -0.1450
     28 C22        -0.6992    0.1409   -0.0757 C.ar      1 <0>        -0.0952
     29 O2          2.6200   -0.5751   -1.3820 O.3       1 <0>        -0.4999
     30 H5          3.1744    8.4767    1.0987 H         1 <0>         0.0615
     31 H6          3.0849    9.1638   -0.5409 H         1 <0>         0.0521
     32 H7          3.9585   10.0345    0.7425 H         1 <0>         0.0570
     33 H8          1.7382   11.0568    0.3258 H         1 <0>         0.0803
     34 H9          1.8276   10.3698    1.9654 H         1 <0>         0.0737
     35 H10        -0.7168   10.3303    1.8988 H         1 <0>         0.0671
     36 H11        -0.7106   10.9038    0.2138 H         1 <0>         0.0702
     37 H12        -1.5415    9.3869    0.6346 H         1 <0>         0.0628
     38 H13        -0.8081    7.9538   -0.7432 H         1 <0>         0.1274
     39 H14        -1.9760    5.9521   -1.5546 H         1 <0>         0.1214
     40 H15         0.6717    5.7435    2.5981 H         1 <0>         0.1278
     41 H16         0.3825    3.9626    3.9696 H         1 <0>         0.1298
     42 H17        -0.7744    1.8518    4.8893 H         1 <0>         0.1291
     43 H18        -2.4952    1.0423    3.1007 H         1 <0>         0.0738
     44 H19        -0.9390    0.7078    2.2698 H         1 <0>         0.0854
     45 H20        -2.5412    3.6599   -1.2216 H         1 <0>         0.4006
     46 H21         0.3732    3.2785   -0.7015 H         1 <0>         0.1307
     47 H22         2.3643    2.0314   -1.4357 H         1 <0>         0.1274
     48 H23         0.4266   -1.6417   -0.4262 H         1 <0>         0.1297
     49 H24        -1.5602   -0.3871    0.3068 H         1 <0>         0.1287
     50 H25         2.6057   -0.8247   -2.3162 H         1 <0>         0.3913
@<TRIPOS>BOND
     1    1    2 1
     2    1   30 1
     3    1   31 1
     4    1   32 1
     5    2    3 1
     6    2   33 1
     7    2   34 1
     8    3    4 1
     9    3    5 1
    10    3    6 1
    11    5   35 1
    12    5   36 1
    13    5   37 1
    14    6    7 1
    15    7   12 ar
    16    7    8 ar
    17    8    9 ar
    18    8   38 1
    19    9   10 ar
    20    9   39 1
    21   10   22 1
    22   10   11 ar
    23   11   12 ar
    24   11   13 1
    25   12   40 1
    26   13   14 1
    27   13   18 1
    28   13   15 1
    29   15   16 2
    30   15   41 1
    31   16   17 1
    32   16   42 1
    33   17   18 1
    34   17   43 1
    35   17   44 1
    36   18   19 1
    37   18   20 1
    38   20   21 1
    39   20   22 1
    40   20   23 1
    41   22   45 1
    42   23   28 ar
    43   23   24 ar
    44   24   25 ar
    45   24   46 1
    46   25   26 ar
    47   25   47 1
    48   26   27 ar
    49   26   29 1
    50   27   28 ar
    51   27   48 1
    52   28   49 1
    53   29   50 1
