@<TRIPOS>MOLECULE
ZINC22804995
   56    58     0     0     0
SMALL
USER_CHARGES
2-[4-(2-amino-2-oxo-ethyl)piperazin-1-yl]-N-[2-[(5Z)-5-[(2-fluorophenyl)methylene]-2,4-dioxo-thiazolidin-3-yl]ethyl]acetamide
@<TRIPOS>ATOM
      1 C1          5.2488    3.3771    0.7873 C.ar      1 <0>        -0.1263
      2 C2          5.6112    4.6193    0.2938 C.ar      1 <0>        -0.0569
      3 C3          4.6671    5.4416   -0.2937 C.ar      1 <0>        -0.1552
      4 C4          3.3521    5.0285   -0.3926 C.ar      1 <0>         0.1417
      5 C5          2.9784    3.7724    0.1043 C.ar      1 <0>        -0.1371
      6 C6          3.9413    2.9507    0.7017 C.ar      1 <0>        -0.0628
      7 C7          1.5832    3.3234    0.0042 C.2       1 <0>         0.0882
      8 C8          1.2828    2.0074    0.1390 C.2       1 <0>        -0.2244
      9 C9         -0.0355    1.3461    0.2231 C.2       1 <0>         0.5618
     10 O1         -1.0732    1.9797    0.1705 O.2       1 <0>        -0.4652
     11 N1         -0.0307    0.0301    0.3530 N.am      1 <0>        -0.5758
     12 C10         1.1215   -0.6686    0.4050 C.2       1 <0>         0.5330
     13 O2          1.2716   -1.8701    0.5205 O.2       1 <0>        -0.4140
     14 S1          2.3735    0.5964    0.2624 S.3       1 <0>        -0.0241
     15 C11        -1.3062   -0.6850    0.4418 C.3       1 <0>         0.0786
     16 C12        -1.7707   -1.0757   -0.9626 C.3       1 <0>         0.1052
     17 N2         -3.0462   -1.7909   -0.8738 N.am      1 <0>        -0.7114
     18 C13        -3.6495   -2.2345   -1.9943 C.2       1 <0>         0.5044
     19 O3         -3.1365   -2.0417   -3.0763 O.2       1 <0>        -0.5296
     20 C14        -4.9616   -2.9702   -1.9029 C.3       1 <0>        -0.0261
     21 N3         -5.4076   -3.3453   -3.2514 N.4       1 <0>        -0.3904
     22 C15        -5.7330   -2.1545   -4.0487 C.3       1 <0>        -0.0030
     23 C16        -6.1158   -2.5827   -5.4674 C.3       1 <0>         0.0234
     24 N4         -7.2612   -3.5014   -5.4067 N.3       1 <0>        -0.5236
     25 C17        -6.9358   -4.6922   -4.6093 C.3       1 <0>         0.0257
     26 C18        -6.5530   -4.2640   -3.1907 C.3       1 <0>         0.0029
     27 C19        -7.7072   -3.8765   -6.7551 C.3       1 <0>         0.0312
     28 C20        -8.2617   -2.6633   -7.4565 C.2       1 <0>         0.5173
     29 O4         -8.2831   -1.5917   -6.8889 O.2       1 <0>        -0.5384
     30 N5         -8.7337   -2.7691   -8.7144 N.am      1 <0>        -0.8749
     31 F1          2.4301    5.8326   -0.9658 F         1 <0>        -0.1257
     32 H1          5.9930    2.7420    1.2448 H         1 <0>         0.1422
     33 H2          6.6373    4.9481    0.3685 H         1 <0>         0.1443
     34 H3          4.9581    6.4090   -0.6757 H         1 <0>         0.1477
     35 H4          3.6608    1.9832    1.0911 H         1 <0>         0.1443
     36 H5          0.7821    4.0543   -0.1801 H         1 <0>         0.1720
     37 H6         -1.1765   -1.5919    1.0506 H         1 <0>         0.1104
     38 H7         -2.0597   -0.0342    0.9094 H         1 <0>         0.1140
     39 H8         -1.9005   -0.1688   -1.5714 H         1 <0>         0.0865
     40 H9         -1.0172   -1.7265   -1.4302 H         1 <0>         0.0845
     41 H10        -3.5115   -1.9658    0.1075 H         1 <0>         0.4383
     42 H11        -4.8318   -3.8771   -1.2941 H         1 <0>         0.1623
     43 H12        -5.7151   -2.3194   -1.4352 H         1 <0>         0.1597
     44 H13        -6.5766   -1.6222   -3.5851 H         1 <0>         0.1341
     45 H14        -4.8575   -1.4897   -4.0889 H         1 <0>         0.1481
     46 H15        -6.3873   -1.6950   -6.0576 H         1 <0>         0.1400
     47 H16        -5.2621   -3.0902   -5.9402 H         1 <0>         0.0581
     48 H17        -7.8113   -5.3569   -4.5690 H         1 <0>         0.1269
     49 H18        -6.0922   -5.2246   -5.0728 H         1 <0>         0.0632
     50 H19        -6.2807   -5.1510   -2.5998 H         1 <0>         0.1392
     51 H20        -7.4060   -3.7558   -2.7173 H         1 <0>         0.1390
     52 H21        -6.8547   -4.2726   -7.3263 H         1 <0>         0.0763
     53 H22        -8.4890   -4.6469   -6.6817 H         1 <0>         0.1178
     54 H23        -9.1384   -1.8836   -9.2263 H         1 <0>         0.4328
     55 H24        -8.7142   -3.7410   -9.2292 H         1 <0>         0.4242
     56 H25        -4.5773   -3.8696   -3.7471 H         1 <0>         0.4452
@<TRIPOS>BOND
     1    1    6 ar
     2    1    2 ar
     3    1   32 1
     4    2    3 ar
     5    2   33 1
     6    3    4 ar
     7    3   34 1
     8    4    5 ar
     9    4   31 1
    10    5    6 ar
    11    5    7 1
    12    6   35 1
    13    7    8 2
    14    7   36 1
    15    8   14 1
    16    8    9 1
    17    9   10 2
    18    9   11 am
    19   11   12 am
    20   11   15 1
    21   12   13 2
    22   12   14 1
    23   15   16 1
    24   15   37 1
    25   15   38 1
    26   16   17 1
    27   16   39 1
    28   16   40 1
    29   17   18 am
    30   17   41 1
    31   18   19 2
    32   18   20 1
    33   20   21 1
    34   20   42 1
    35   20   43 1
    36   21   26 1
    37   21   22 1
    38   21   56 1
    39   22   23 1
    40   22   44 1
    41   22   45 1
    42   23   24 1
    43   23   46 1
    44   23   47 1
    45   24   25 1
    46   24   27 1
    47   25   26 1
    48   25   48 1
    49   25   49 1
    50   26   50 1
    51   26   51 1
    52   27   28 1
    53   27   52 1
    54   27   53 1
    55   28   29 2
    56   28   30 am
    57   30   54 1
    58   30   55 1
