@<TRIPOS>MOLECULE
ZINC46819175
   47    48     0     0     0
SMALL
USER_CHARGES

@<TRIPOS>ATOM
      1 C1         -0.7444    2.0790   -0.2068 C.3       1 <0>        -0.1702
      2 C2         -0.6609    0.5570   -0.3389 C.3       1 <0>         0.1361
      3 H1         -0.0166    0.1591    0.4451 H         1 <0>         0.1161
      4 C3         -0.0902    0.2004   -1.6873 C.2       1 <0>         0.5164
      5 O1         -0.7393   -0.4686   -2.4625 O.2       1 <0>        -0.4568
      6 N1          1.1417    0.6251   -2.0314 N.am      1 <0>        -0.6874
      7 C4          1.6520    0.3062   -3.2374 C.2       1 <0>         0.6983
      8 O2          1.0013   -0.3644   -4.0145 O.2       1 <0>        -0.5246
      9 N2          2.8840    0.7309   -3.5815 N.am      1 <0>        -0.7078
     10 C5          3.4387    0.3842   -4.8923 C.3       1 <0>         0.0916
     11 C6          4.8985   -0.0709   -4.9437 C.3       1 <0>        -0.1914
     12 C7          4.5087    1.3103   -5.4739 C.3       1 <0>        -0.1864
     13 N3         -2.0016   -0.0187   -0.2082 N.pl3     1 <0>        -0.7283
     14 C8         -2.5254   -0.2920    1.0608 C.ar      1 <0>         0.2465
     15 C9         -1.7762   -0.0120    2.1957 C.ar      1 <0>        -0.2068
     16 C10        -2.2913   -0.2809    3.4498 C.ar      1 <0>        -0.0875
     17 C11        -3.5576   -0.8316    3.5769 C.ar      1 <0>         0.0636
     18 C12        -4.3111   -1.1134    2.4398 C.ar      1 <0>         0.1611
     19 C13        -3.7961   -0.8377    1.1843 C.ar      1 <0>        -0.2589
     20 O3         -5.5531   -1.6539    2.5627 O.3       1 <0>        -0.3120
     21 C14        -6.2688   -1.9166    1.3541 C.3       1 <0>         0.0260
     22 N4         -4.0794   -1.1052    4.8501 N.pl3     1 <0>        -1.0436
     23 S1         -3.7360   -0.0986    6.1194 S.o2      1 <0>         2.6111
     24 O4         -4.4878   -0.6180    7.2077 O.2       1 <0>        -0.9543
     25 O5         -2.3167   -0.0558    6.1745 O.2       1 <0>        -0.9524
     26 C15        -4.3911    1.5183    5.6226 C.3       1 <0>        -0.6690
     27 H2          0.2532    2.5074   -0.3040 H         1 <0>         0.0718
     28 H3         -1.3886    2.4770   -0.9907 H         1 <0>         0.0691
     29 H4         -1.1571    2.3370    0.7685 H         1 <0>         0.0823
     30 H5          1.6610    1.1604   -1.4112 H         1 <0>         0.4118
     31 H6          3.4033    1.2662   -2.9612 H         1 <0>         0.4007
     32 H7          2.7416   -0.0800   -5.5899 H         1 <0>         0.1417
     33 H8          5.4462   -0.1124   -4.0022 H         1 <0>         0.0986
     34 H9          5.1621   -0.8348   -5.6751 H         1 <0>         0.1056
     35 H10         4.5159    1.4551   -6.5543 H         1 <0>         0.1069
     36 H11         4.8000    2.1775   -4.8813 H         1 <0>         0.0989
     37 H12        -2.5264   -0.2106   -1.0011 H         1 <0>         0.4112
     38 H13        -0.7895    0.4163    2.0985 H         1 <0>         0.1314
     39 H14        -1.7069   -0.0624    4.3314 H         1 <0>         0.1684
     40 H15        -4.3806   -1.0514    0.3016 H         1 <0>         0.1343
     41 H16        -7.2418   -2.3455    1.5939 H         1 <0>         0.1022
     42 H17        -6.4076   -0.9857    0.8043 H         1 <0>         0.0577
     43 H18        -5.7029   -2.6191    0.7422 H         1 <0>         0.0582
     44 H19        -4.6413   -1.8839    4.9869 H         1 <0>         0.4275
     45 H20        -5.4644    1.4382    5.4505 H         1 <0>         0.1306
     46 H21        -4.2031    2.2450    6.4131 H         1 <0>         0.1318
     47 H22        -3.8994    1.8434    4.7058 H         1 <0>         0.1298
@<TRIPOS>BOND
     1    1    2 1
     2    1   27 1
     3    1   28 1
     4    1   29 1
     5    2    3 1
     6    2    4 1
     7    2   13 1
     8    4    5 2
     9    4    6 am
    10    6    7 am
    11    6   30 1
    12    7    8 2
    13    7    9 am
    14    9   10 1
    15    9   31 1
    16   10   12 1
    17   10   11 1
    18   10   32 1
    19   11   12 1
    20   11   33 1
    21   11   34 1
    22   12   35 1
    23   12   36 1
    24   13   14 1
    25   13   37 1
    26   14   19 ar
    27   14   15 ar
    28   15   16 ar
    29   15   38 1
    30   16   17 ar
    31   16   39 1
    32   17   18 ar
    33   17   22 1
    34   18   19 ar
    35   18   20 1
    36   19   40 1
    37   20   21 1
    38   21   41 1
    39   21   42 1
    40   21   43 1
    41   22   23 1
    42   22   44 1
    43   23   24 2
    44   23   25 2
    45   23   26 1
    46   26   45 1
    47   26   46 1
    48   26   47 1
