@<TRIPOS>MOLECULE
ZINC49508402
   46    50     0     0     0
SMALL
USER_CHARGES

@<TRIPOS>ATOM
      1 C1          3.2491    2.8975   -1.7297 C.3       1 <0>        -0.1178
      2 C2          3.2168    1.4197   -2.0234 C.ar      1 <0>        -0.0623
      3 C3          3.9294    0.9132   -3.0941 C.ar      1 <0>        -0.1125
      4 C4          3.9109   -0.4434   -3.3565 C.ar      1 <0>        -0.0956
      5 C5          3.1728   -1.3008   -2.5524 C.ar      1 <0>         0.0686
      6 C6          2.4383   -0.7913   -1.4890 C.ar      1 <0>         0.1206
      7 C7          2.4800    0.5729   -1.2191 C.ar      1 <0>        -0.1262
      8 N1          1.6304   -1.6095   -0.7005 N.am      1 <0>        -0.6520
      9 C8          1.9223   -2.8351   -0.2875 C.2       1 <0>         0.5724
     10 O1          1.1053   -3.4019    0.4119 O.2       1 <0>        -0.5211
     11 C9          3.1586   -3.5603   -0.6117 C.ar      1 <0>        -0.1461
     12 C10         3.7657   -4.3643    0.3577 C.ar      1 <0>        -0.0683
     13 C11         4.9168   -5.0679    0.0494 C.ar      1 <0>         0.1344
     14 C12         5.4692   -4.9787   -1.2237 C.ar      1 <0>        -0.0737
     15 C13         4.8802   -4.1800   -2.1826 C.ar      1 <0>        -0.1106
     16 C14         3.7326   -3.4588   -1.8831 C.ar      1 <0>         0.1201
     17 O2          3.2008   -2.6317   -2.8126 O.3       1 <0>        -0.2608
     18 N2          5.5271   -5.8713    1.0218 N.am      1 <0>        -0.6660
     19 C15         6.1207   -7.0275    0.6651 C.2       1 <0>         0.5642
     20 O3          6.1966   -7.3342   -0.5059 O.2       1 <0>        -0.5077
     21 C16         6.6902   -7.9393    1.7212 C.3       1 <0>        -0.0925
     22 C17         5.9374   -9.2388    2.0133 C.3       1 <0>        -0.1290
     23 C18         7.2690   -9.2787    1.2609 C.3       1 <0>        -0.1294
     24 C19         7.3656   -7.2506    2.8791 C.2       1 <0>        -0.1205
     25 C20         6.8255   -6.4451    3.8260 C.2       1 <0>        -0.1529
     26 C21         7.6462   -5.9185    4.8057 C.2       1 <0>        -0.1570
     27 C22         8.9669   -6.2232    4.7906 C.2       1 <0>        -0.1676
     28 S1          9.0833   -7.2902    3.3640 S.3       1 <0>         0.0630
     29 H1          4.0760    3.1156   -1.0539 H         1 <0>         0.0763
     30 H2          3.3844    3.4499   -2.6596 H         1 <0>         0.0731
     31 H3          2.3102    3.1958   -1.2632 H         1 <0>         0.0706
     32 H4          4.5003    1.5777   -3.7258 H         1 <0>         0.1377
     33 H5          4.4724   -0.8379   -4.1904 H         1 <0>         0.1420
     34 H6          1.9304    0.9719   -0.3794 H         1 <0>         0.1366
     35 H7          0.7729   -1.2474   -0.4277 H         1 <0>         0.4148
     36 H8          3.3366   -4.4364    1.3462 H         1 <0>         0.1433
     37 H9          6.3627   -5.5363   -1.4628 H         1 <0>         0.1552
     38 H10         5.3139   -4.1155   -3.1696 H         1 <0>         0.1476
     39 H11         5.5222   -5.5953    1.9517 H         1 <0>         0.4138
     40 H12         5.9304   -9.5958    3.0432 H         1 <0>         0.1134
     41 H13         5.0302   -9.4343    1.4416 H         1 <0>         0.1116
     42 H14         7.2378   -9.5004    0.1941 H         1 <0>         0.1204
     43 H15         8.1380   -9.6619    1.7957 H         1 <0>         0.1105
     44 H16         5.7697   -6.2178    3.8150 H         1 <0>         0.1327
     45 H17         7.2413   -5.2737    5.5716 H         1 <0>         0.1380
     46 H18         9.7459   -5.9061    5.4681 H         1 <0>         0.1890
@<TRIPOS>BOND
     1    1    2 1
     2    1   29 1
     3    1   30 1
     4    1   31 1
     5    2    7 ar
     6    2    3 ar
     7    3    4 ar
     8    3   32 1
     9    4    5 ar
    10    4   33 1
    11    5   17 1
    12    5    6 ar
    13    6    7 ar
    14    6    8 1
    15    7   34 1
    16    8    9 am
    17    8   35 1
    18    9   10 2
    19    9   11 1
    20   11   16 ar
    21   11   12 ar
    22   12   13 ar
    23   12   36 1
    24   13   14 ar
    25   13   18 1
    26   14   15 ar
    27   14   37 1
    28   15   16 ar
    29   15   38 1
    30   16   17 1
    31   18   19 am
    32   18   39 1
    33   19   20 2
    34   19   21 1
    35   21   23 1
    36   21   22 1
    37   21   24 1
    38   22   23 1
    39   22   40 1
    40   22   41 1
    41   23   42 1
    42   23   43 1
    43   24   28 1
    44   24   25 2
    45   25   26 1
    46   25   44 1
    47   26   27 2
    48   26   45 1
    49   27   28 1
    50   27   46 1
