@<TRIPOS>MOLECULE
ZINC09302199
   49    53     0     0     0
SMALL
USER_CHARGES
hydroxyBLAHcarboxylic acid
@<TRIPOS>ATOM
      1 C1         -6.7205   -4.8114    0.7235 C.ar      1 <0>        -0.1405
      2 C2         -7.1186   -3.9179   -0.2575 C.ar      1 <0>        -0.0889
      3 C3         -6.2482   -2.9977   -0.8154 C.ar      1 <0>        -0.1259
      4 C4         -4.9366   -3.0037   -0.3456 C.ar      1 <0>         0.1095
      5 C5         -4.5335   -3.9221    0.6587 C.ar      1 <0>        -0.0971
      6 C6         -5.4351   -4.8411    1.2048 C.ar      1 <0>        -0.0663
      7 C7         -3.1328   -3.6571    0.9005 C.2       1 <0>        -0.1690
      8 C8         -2.7707   -2.6435    0.0800 C.2       1 <0>         0.0404
      9 N1         -3.8453   -2.2487   -0.6690 N.pl3     1 <0>        -0.5612
     10 H1         -3.8339   -1.5392   -1.3303 H         1 <0>         0.4233
     11 C9         -1.3716   -2.0803    0.0450 C.3       1 <0>         0.1170
     12 H2         -0.8476   -2.4583   -0.8328 H         1 <0>         0.1422
     13 C10        -1.4288   -0.5474    0.0017 C.3       1 <0>        -0.1494
     14 C11         0.0021   -0.0041    0.0020 C.3       1 <0>        -0.0580
     15 H3          0.5223   -0.3550   -0.8892 H         1 <0>         0.0688
     16 C12         0.7332   -0.5061    1.2498 C.3       1 <0>        -0.1312
     17 H4          0.2271   -0.1338    2.1406 H         1 <0>         0.1410
     18 C13         2.1735    0.0065    1.2320 C.3       1 <0>        -0.0987
     19 C14         2.1637    1.5373    1.2340 C.3       1 <0>        -0.1549
     20 C15         1.4196    2.0489   -0.0005 C.3       1 <0>         0.1286
     21 H5          1.9262    1.6993   -0.9001 H         1 <0>         0.0402
     22 C16        -0.0187    1.5248    0.0104 C.3       1 <0>        -0.1268
     23 H6         -0.5446    1.8866   -0.8731 H         1 <0>         0.0805
     24 C17        -0.7223    2.0118    1.2509 C.2       1 <0>         0.4742
     25 O1         -1.1625    1.2168    2.0472 O.co2     1 <0>        -0.6530
     26 O2          1.4051    3.4777    0.0112 O.3       1 <0>        -0.5307
     27 C18         0.7249   -2.0359    1.2620 C.3       1 <0>         0.0087
     28 C19        -0.7514   -3.9570    1.4607 C.3       1 <0>         0.0001
     29 C20        -2.1856   -4.3327    1.8600 C.3       1 <0>        -0.0678
     30 H7         -7.4444   -5.5065    1.1226 H         1 <0>         0.1239
     31 H8         -8.1430   -3.9405   -0.5988 H         1 <0>         0.1273
     32 H9         -6.5709   -2.3069   -1.5802 H         1 <0>         0.1337
     33 H10        -5.1342   -5.5415    1.9699 H         1 <0>         0.1323
     34 H11        -1.9621   -0.1721    0.8751 H         1 <0>         0.1348
     35 H12        -1.9406   -0.2278   -0.9061 H         1 <0>         0.0920
     36 H13         2.6997   -0.3554    2.1153 H         1 <0>         0.0705
     37 H14         2.6771   -0.3539    0.3350 H         1 <0>         0.0637
     38 H15         1.6632    1.8956    2.1336 H         1 <0>         0.0828
     39 H16         3.1891    1.9066    1.2185 H         1 <0>         0.0660
     40 H17         2.2845    3.8800    0.0052 H         1 <0>         0.3632
     41 H18         1.2370   -2.4104    0.3757 H         1 <0>         0.1233
     42 H19         1.2331   -2.3962    2.1565 H         1 <0>         0.1278
     43 H20        -0.4863   -4.4674    0.5349 H         1 <0>         0.1284
     44 H21        -0.0636   -4.2569    2.2513 H         1 <0>         0.1329
     45 H22        -2.3859   -3.9920    2.8758 H         1 <0>         0.0983
     46 H23        -2.3129   -5.4137    1.8027 H         1 <0>         0.1150
     47 O3         -0.8601    3.3287    1.4711 O.co2     1 <0>        -0.7223
     48 N2         -0.6840   -2.4854    1.2919 N.4       1 <0>        -0.3861
     49 H24        -1.1555   -2.0408    2.0883 H         1 <0>         0.4373
@<TRIPOS>BOND
     1    1    6 ar
     2    1    2 ar
     3    1   30 1
     4    2    3 ar
     5    2   31 1
     6    3    4 ar
     7    3   32 1
     8    4    9 1
     9    4    5 ar
    10    5    6 ar
    11    5    7 1
    12    6   33 1
    13    7   29 1
    14    7    8 2
    15    8    9 1
    16    8   11 1
    17    9   10 1
    18   11   12 1
    19   11   13 1
    20   11   48 1
    21   13   14 1
    22   13   34 1
    23   13   35 1
    24   14   15 1
    25   14   22 1
    26   14   16 1
    27   16   17 1
    28   16   18 1
    29   16   27 1
    30   18   19 1
    31   18   36 1
    32   18   37 1
    33   19   20 1
    34   19   38 1
    35   19   39 1
    36   20   21 1
    37   20   22 1
    38   20   26 1
    39   22   23 1
    40   22   24 1
    41   24   25 2
    42   24   47 1
    43   26   40 1
    44   27   41 1
    45   27   42 1
    46   27   48 1
    47   28   29 1
    48   28   43 1
    49   28   44 1
    50   28   48 1
    51   29   45 1
    52   29   46 1
    53   48   49 1
