@<TRIPOS>MOLECULE
ZINC36267226
   42    44     0     0     0
SMALL
USER_CHARGES

@<TRIPOS>ATOM
      1 C1         -0.0184    1.5028    0.0103 C.3       1 <0>        -0.1208
      2 C2          0.0021   -0.0041    0.0020 C.2       1 <0>         0.1799
      3 C3          0.0080   -0.8237   -1.1409 C.2       1 <0>        -0.8514
      4 C4          0.0273   -2.1079   -0.7353 C.2       1 <0>         0.2193
      5 O1          0.0335   -2.1190    0.6064 O.3       1 <0>        -0.0724
      6 N1          0.0230   -0.7748    1.0524 N.2       1 <0>        -0.3027
      7 C5          0.0393   -3.3197   -1.6311 C.3       1 <0>        -0.1378
      8 S1         -0.0076   -0.2673   -2.8126 S.o2      1 <0>         2.7373
      9 O2         -0.5474   -1.3282   -3.5887 O.2       1 <0>        -0.9438
     10 O3         -0.5765    1.0348   -2.8020 O.2       1 <0>        -0.9339
     11 N2          1.5698   -0.0907   -3.2847 N.pl3     1 <0>        -1.0108
     12 C6          2.3749    1.1334   -3.1456 C.3       1 <0>         0.1151
     13 C7          3.7893    0.8113   -3.7014 C.3       1 <0>        -0.0940
     14 H1          4.2400    1.6646   -4.2081 H         1 <0>         0.1102
     15 C8          4.6261    0.3426   -2.5093 C.3       1 <0>        -0.1179
     16 C9          5.8789   -0.3937   -2.9749 C.3       1 <0>        -0.1395
     17 C10         5.4458   -1.6450   -3.7480 C.3       1 <0>         0.0185
     18 H2          4.7898   -2.2535   -3.1256 H         1 <0>         0.1432
     19 C11         4.6959   -1.1932   -5.0006 C.3       1 <0>        -0.1289
     20 C12         3.4868   -0.3473   -4.6698 C.3       1 <0>        -0.0897
     21 H3          3.0516    0.0545   -5.5848 H         1 <0>         0.1088
     22 C13         2.4045   -1.1385   -3.9097 C.3       1 <0>         0.1131
     23 N3          6.6297   -2.4255   -4.1319 N.4       1 <0>        -0.6353
     24 H4          1.0042    1.8801    0.0026 H         1 <0>         0.0955
     25 H5         -0.5455    1.8639   -0.8728 H         1 <0>         0.1197
     26 H6         -0.5286    1.8543    0.9071 H         1 <0>         0.0958
     27 H7          1.0697   -3.5980   -1.8521 H         1 <0>         0.1061
     28 H8         -0.4610   -4.1477   -1.1290 H         1 <0>         0.1076
     29 H9         -0.4822   -3.0898   -2.5603 H         1 <0>         0.1358
     30 H10         1.9244    1.9424   -3.7207 H         1 <0>         0.0860
     31 H11         2.4434    1.4164   -2.0952 H         1 <0>         0.0757
     32 H12         4.9198    1.2084   -1.9158 H         1 <0>         0.0912
     33 H13         4.0265   -0.3264   -1.8921 H         1 <0>         0.0762
     34 H14         6.4656    0.2549   -3.6254 H         1 <0>         0.0936
     35 H15         6.4761   -0.6847   -2.1107 H         1 <0>         0.0903
     36 H16         5.3690   -0.6060   -5.6253 H         1 <0>         0.0959
     37 H17         4.3727   -2.0725   -5.5578 H         1 <0>         0.0951
     38 H18         2.8566   -1.7723   -3.1468 H         1 <0>         0.0633
     39 H19         1.8120   -1.7363   -4.6022 H         1 <0>         0.0964
     40 H20         7.1331   -2.7027   -3.3026 H         1 <0>         0.4379
     41 H21         6.3402   -3.2476   -4.6402 H         1 <0>         0.4370
     42 H22         7.2288   -1.8622   -4.7165 H         1 <0>         0.4344
@<TRIPOS>BOND
     1    1    2 1
     2    1   24 1
     3    1   25 1
     4    1   26 1
     5    2    6 2
     6    2    3 1
     7    3    4 2
     8    3    8 1
     9    4    5 1
    10    4    7 1
    11    5    6 1
    12    7   27 1
    13    7   28 1
    14    7   29 1
    15    8    9 2
    16    8   10 2
    17    8   11 1
    18   11   22 1
    19   11   12 1
    20   12   13 1
    21   12   30 1
    22   12   31 1
    23   13   14 1
    24   13   20 1
    25   13   15 1
    26   15   16 1
    27   15   32 1
    28   15   33 1
    29   16   17 1
    30   16   34 1
    31   16   35 1
    32   17   18 1
    33   17   19 1
    34   17   23 1
    35   19   20 1
    36   19   36 1
    37   19   37 1
    38   20   21 1
    39   20   22 1
    40   22   38 1
    41   22   39 1
    42   23   40 1
    43   23   41 1
    44   23   42 1
