@<TRIPOS>MOLECULE
ZINC61407063
   23    25     0     0     0
SMALL
USER_CHARGES

@<TRIPOS>ATOM
      1 C1         -0.0164    1.3551    0.0095 C.2       1 <0>        -0.0848
      2 C2          1.1944    2.0721    0.0018 C.2       1 <0>        -0.1272
      3 C3          2.3742    1.4196   -0.0130 C.2       1 <0>         0.0604
      4 N1          2.4105    0.0535   -0.0211 N.pl3     1 <0>        -0.3742
      5 C4          1.2409   -0.6757   -0.0139 C.2       1 <0>         0.2043
      6 C5          0.0021   -0.0041    0.0020 C.2       1 <0>        -0.0757
      7 N2          1.5836   -1.9510   -0.0245 N.2       1 <0>        -0.2822
      8 N3          2.8659   -2.0551   -0.0376 N.2       1 <0>        -0.1861
      9 C6          3.4198   -0.8636   -0.0362 C.2       1 <0>         0.0769
     10 S1          5.1470   -0.5151   -0.0515 S.3       1 <0>         0.2120
     11 C7          5.9028   -2.1067   -0.0677 C.ar      1 <0>         0.0534
     12 C8          7.2934   -2.2211   -0.0764 C.ar      1 <0>         0.1463
     13 N4          7.8543   -3.4157   -0.0881 N.ar      1 <0>        -0.4136
     14 C9          7.0995   -4.5028   -0.0915 C.ar      1 <0>         0.0706
     15 C10         5.7228   -4.3932   -0.0834 C.ar      1 <0>         0.0738
     16 N5          5.1515   -3.2003   -0.0662 N.ar      1 <0>        -0.3796
     17 Cl1         8.2836   -0.7952   -0.0725 Cl        1 <0>         0.0046
     18 H1         -0.9581    1.8835    0.0258 H         1 <0>         0.1523
     19 H2          1.1786    3.1520    0.0074 H         1 <0>         0.1613
     20 H3          3.2971    1.9805   -0.0188 H         1 <0>         0.1712
     21 H4         -0.9221   -0.5629    0.0078 H         1 <0>         0.1617
     22 H5          7.5617   -5.4789   -0.1011 H         1 <0>         0.1871
     23 H6          5.1113   -5.2835   -0.0866 H         1 <0>         0.1874
@<TRIPOS>BOND
     1    1    6 2
     2    1    2 1
     3    1   18 1
     4    2    3 2
     5    2   19 1
     6    3    4 1
     7    3   20 1
     8    4    9 1
     9    4    5 1
    10    5    6 1
    11    5    7 2
    12    6   21 1
    13    7    8 1
    14    8    9 2
    15    9   10 1
    16   10   11 1
    17   11   16 ar
    18   11   12 ar
    19   12   13 ar
    20   12   17 1
    21   13   14 ar
    22   14   15 ar
    23   14   22 1
    24   15   16 ar
    25   15   23 1
