@<TRIPOS>MOLECULE
ZINC07854555
   55    58     0     0     0
SMALL
USER_CHARGES
N-(1,3-dioxo-2,4-diazaspiro[4.5]dec-2-yl)-2-[2-(1-methylpyrrol-2-yl)pyrrolidin-1-yl]-acetamide
@<TRIPOS>ATOM
      1 C1          3.1592    9.9890    3.3673 C.3       1 <0>         0.0540
      2 N1          2.1052    8.9851    3.5337 N.pl3     1 <0>        -0.4257
      3 C2          0.8659    9.2133    4.0540 C.2       1 <0>         0.0247
      4 C3          0.1837    8.0502    4.0439 C.2       1 <0>        -0.1836
      5 C4          1.0311    7.0690    3.4924 C.2       1 <0>        -0.1902
      6 C5          2.2018    7.6682    3.1942 C.2       1 <0>        -0.0462
      7 C6          3.4068    6.9990    2.5849 C.3       1 <0>         0.1133
      8 H1          3.6274    7.4292    1.6080 H         1 <0>         0.1511
      9 C7          4.6316    7.1354    3.5234 C.3       1 <0>        -0.1417
     10 C8          5.5006    5.9284    3.0820 C.3       1 <0>        -0.1380
     11 C9          4.4508    4.8471    2.7502 C.3       1 <0>        -0.0077
     12 C10         2.6774    5.1941    1.1320 C.3       1 <0>        -0.0147
     13 C11         2.2135    3.7603    1.1287 C.2       1 <0>         0.5107
     14 O1          2.2952    3.0942    2.1389 O.2       1 <0>        -0.4970
     15 N2          1.7079    3.2182    0.0031 N.am      1 <0>        -0.4833
     16 N3          1.2766    1.8853   -0.0000 N.am      1 <0>        -0.3799
     17 C12        -0.0184    1.5073    0.0103 C.2       1 <0>         0.5342
     18 O2         -0.9932    2.2280    0.0191 O.2       1 <0>        -0.4367
     19 C13         0.0021   -0.0041    0.0020 C.3       1 <0>         0.1411
     20 C14        -0.6870   -0.5381   -1.2489 C.3       1 <0>        -0.1174
     21 C15        -0.6291   -2.0679   -1.2526 C.3       1 <0>        -0.1183
     22 C16        -1.3217   -2.6063    0.0009 C.3       1 <0>        -0.1285
     23 C17        -0.6049   -2.0812    1.2465 C.3       1 <0>        -0.1179
     24 C18        -0.6627   -0.5515    1.2602 C.3       1 <0>        -0.1164
     25 N4          1.4312   -0.3412   -0.0136 N.am      1 <0>        -0.6997
     26 C19         2.0985    0.8287   -0.0136 C.2       1 <0>         0.7088
     27 O3          3.3107    0.9153   -0.0240 O.2       1 <0>        -0.5257
     28 H2          3.0661   10.4543    2.3860 H         1 <0>         0.0847
     29 H3          3.0612   10.7503    4.1411 H         1 <0>         0.0980
     30 H4          4.1344    9.5093    3.4509 H         1 <0>         0.0875
     31 H5          0.4947   10.1619    4.4130 H         1 <0>         0.1780
     32 H6         -0.8280    7.8994    4.3907 H         1 <0>         0.1502
     33 H7          0.7886    6.0278    3.3388 H         1 <0>         0.1333
     34 H8          4.3353    7.0419    4.5682 H         1 <0>         0.1053
     35 H9          5.1538    8.0765    3.3505 H         1 <0>         0.1202
     36 H10         6.1473    5.6009    3.8960 H         1 <0>         0.1183
     37 H11         6.0881    6.1791    2.1987 H         1 <0>         0.1033
     38 H12         4.3252    4.1786    3.6019 H         1 <0>         0.1390
     39 H13         4.7651    4.2778    1.8754 H         1 <0>         0.1340
     40 H14         3.4736    5.3201    0.3983 H         1 <0>         0.1714
     41 H15         1.8423    5.8468    0.8775 H         1 <0>         0.1697
     42 H16         1.6426    3.7510   -0.8049 H         1 <0>         0.4372
     43 H17        -1.7277   -0.2142   -1.2564 H         1 <0>         0.0965
     44 H18        -0.1809   -0.1535   -2.1344 H         1 <0>         0.0785
     45 H19         0.4115   -2.3922   -1.2606 H         1 <0>         0.0667
     46 H20        -1.1353   -2.4487   -2.1396 H         1 <0>         0.0817
     47 H21        -1.2883   -3.6957   -0.0052 H         1 <0>         0.0750
     48 H22        -2.3601   -2.2750    0.0127 H         1 <0>         0.0718
     49 H23         0.4356   -2.4055    1.2309 H         1 <0>         0.0664
     50 H24        -1.0939   -2.4714    2.1391 H         1 <0>         0.0810
     51 H25        -0.1396   -0.1763    2.1398 H         1 <0>         0.0773
     52 H26        -1.7032   -0.2281    1.2911 H         1 <0>         0.0956
     53 H27         1.8181   -1.2306   -0.0226 H         1 <0>         0.4491
     54 N5          3.1811    5.5432    2.4859 N.4       1 <0>        -0.3774
     55 H28         2.4858    5.2588    3.1859 H         1 <0>         0.4385
@<TRIPOS>BOND
     1    1    2 1
     2    1   28 1
     3    1   29 1
     4    1   30 1
     5    2    6 1
     6    2    3 1
     7    3    4 2
     8    3   31 1
     9    4    5 1
    10    4   32 1
    11    5    6 2
    12    5   33 1
    13    6    7 1
    14    7    8 1
    15    7    9 1
    16    7   54 1
    17    9   10 1
    18    9   34 1
    19    9   35 1
    20   10   11 1
    21   10   36 1
    22   10   37 1
    23   11   38 1
    24   11   39 1
    25   11   54 1
    26   12   13 1
    27   12   40 1
    28   12   41 1
    29   12   54 1
    30   13   14 2
    31   13   15 am
    32   15   16 1
    33   15   42 1
    34   16   26 am
    35   16   17 am
    36   17   18 2
    37   17   19 1
    38   19   24 1
    39   19   20 1
    40   19   25 1
    41   20   21 1
    42   20   43 1
    43   20   44 1
    44   21   22 1
    45   21   45 1
    46   21   46 1
    47   22   23 1
    48   22   47 1
    49   22   48 1
    50   23   24 1
    51   23   49 1
    52   23   50 1
    53   24   51 1
    54   24   52 1
    55   25   26 am
    56   25   53 1
    57   26   27 2
    58   54   55 1
