@<TRIPOS>MOLECULE
ZINC24893679
   52    53     0     0     0
SMALL
USER_CHARGES
O3-ethyl O1-[(1S)-2-[[(1S)-1-(4-fluorophenyl)ethyl]amino]-1-methyl-2-oxo-ethyl] 5-nitrobenzene-1,3-dicarboxylate
@<TRIPOS>ATOM
      1 C1         -6.1048    1.7885    0.0405 C.3       1 <0>        -0.1577
      2 C2         -4.8825    0.8682    0.0298 C.3       1 <0>         0.0620
      3 O1         -3.6724    1.6707    0.0284 O.3       1 <0>        -0.3498
      4 C3         -2.4994    1.0085    0.0193 C.2       1 <0>         0.5159
      5 O2         -2.4878   -0.2062    0.0126 O.2       1 <0>        -0.4862
      6 C4         -1.2271    1.7594    0.0174 C.ar      1 <0>        -0.1280
      7 C5         -0.0126    1.0758    0.0080 C.ar      1 <0>         0.0532
      8 C6          1.1826    1.7920    0.0004 C.ar      1 <0>        -0.1273
      9 C7          1.1562    3.1894    0.0082 C.ar      1 <0>         0.0339
     10 C8         -0.0503    3.8600    0.0234 C.ar      1 <0>        -0.0637
     11 C9         -1.2386    3.1566    0.0305 C.ar      1 <0>         0.0324
     12 N1         -0.0704    5.3401    0.0316 N.pl3     1 <0>         0.0253
     13 O3          0.9761    5.9633    0.0249 O.2       1 <0>        -0.1389
     14 O4         -1.1333    5.9346    0.0449 O.3       1 <0>        -0.1425
     15 C10         2.4748    1.0759   -0.0163 C.2       1 <0>         0.5188
     16 O5          2.4961   -0.1386   -0.0235 O.2       1 <0>        -0.4844
     17 O6          3.6293    1.7699   -0.0236 O.3       1 <0>        -0.3235
     18 C11         4.8607    1.0006   -0.0401 C.3       1 <0>         0.0723
     19 H1          4.6610    0.0600    0.4940 H         1 <0>         0.1184
     20 C12         5.2791    0.7387   -1.4882 C.3       1 <0>        -0.1691
     21 C13         5.9456    1.7740    0.6642 C.2       1 <0>         0.5219
     22 O7          5.7047    2.8659    1.1338 O.2       1 <0>        -0.5139
     23 N2          7.1835    1.2521    0.7723 N.am      1 <0>        -0.7322
     24 C14         8.2382    2.0039    1.4570 C.3       1 <0>         0.1900
     25 H2          8.0852    3.0697    1.2322 H         1 <0>         0.1018
     26 C15         8.1557    1.7426    2.9622 C.3       1 <0>        -0.1611
     27 C16         9.5843    1.5621    0.9434 C.ar      1 <0>        -0.1034
     28 C17         9.8232    0.2233    0.6947 C.ar      1 <0>        -0.0867
     29 C18        11.0555   -0.1823    0.2184 C.ar      1 <0>        -0.1482
     30 C19        12.0548    0.7512    0.0015 C.ar      1 <0>         0.1018
     31 C20        11.8161    2.0911    0.2562 C.ar      1 <0>        -0.1473
     32 C21        10.5811    2.4951    0.7267 C.ar      1 <0>        -0.0761
     33 F1         13.2618    0.3550   -0.4581 F         1 <0>        -0.1370
     34 H3         -7.0215    1.1805    0.0416 H         1 <0>         0.0860
     35 H4         -6.0900    2.4281   -0.8543 H         1 <0>         0.0704
     36 H5         -6.0816    2.4185    0.9419 H         1 <0>         0.0705
     37 H6         -4.8973    0.2286    0.9246 H         1 <0>         0.0771
     38 H7         -4.9057    0.2382   -0.8716 H         1 <0>         0.0771
     39 H8          0.0021   -0.0041    0.0020 H         1 <0>         0.1753
     40 H9          2.0819    3.7457    0.0027 H         1 <0>         0.1806
     41 H10        -2.1790    3.6875    0.0420 H         1 <0>         0.1787
     42 H11         6.2119    0.1559   -1.5006 H         1 <0>         0.0865
     43 H12         5.4390    1.6977   -2.0028 H         1 <0>         0.0791
     44 H13         4.4872    0.1742   -2.0023 H         1 <0>         0.0790
     45 H14         7.4019    0.2617    0.3464 H         1 <0>         0.4202
     46 H15         8.9476    2.3071    3.4763 H         1 <0>         0.0721
     47 H16         8.2871    0.6677    3.1555 H         1 <0>         0.0623
     48 H17         7.1731    2.0652    3.3370 H         1 <0>         0.0674
     49 H18         9.0453   -0.5053    0.8689 H         1 <0>         0.1318
     50 H19        11.2406   -1.2278    0.0203 H         1 <0>         0.1387
     51 H20        12.5949    2.8201    0.0877 H         1 <0>         0.1395
     52 H21        10.3947    3.5402    0.9255 H         1 <0>         0.1370
@<TRIPOS>BOND
     1    1    2 1
     2    1   34 1
     3    1   35 1
     4    1   36 1
     5    2    3 1
     6    2   37 1
     7    2   38 1
     8    3    4 1
     9    4    5 2
    10    4    6 1
    11    6   11 ar
    12    6    7 ar
    13    7    8 ar
    14    7   39 1
    15    8    9 ar
    16    8   15 1
    17    9   10 ar
    18    9   40 1
    19   10   11 ar
    20   10   12 1
    21   11   41 1
    22   12   13 2
    23   12   14 1
    24   15   16 2
    25   15   17 1
    26   17   18 1
    27   18   19 1
    28   18   20 1
    29   18   21 1
    30   20   42 1
    31   20   43 1
    32   20   44 1
    33   21   22 2
    34   21   23 am
    35   23   24 1
    36   23   45 1
    37   24   25 1
    38   24   26 1
    39   24   27 1
    40   26   46 1
    41   26   47 1
    42   26   48 1
    43   27   32 ar
    44   27   28 ar
    45   28   29 ar
    46   28   49 1
    47   29   30 ar
    48   29   50 1
    49   30   31 ar
    50   30   33 1
    51   31   32 ar
    52   31   51 1
    53   32   52 1
