@<TRIPOS>MOLECULE
ZINC35729138
   59    63     0     0     0
SMALL
USER_CHARGES

@<TRIPOS>ATOM
      1 C1         -0.0178    1.4608    0.0101 C.3       1 <0>         0.0879
      2 N1          0.0021   -0.0041    0.0020 N.pl3     1 <0>        -0.6313
      3 C2          0.0241   -0.7433    1.2666 C.3       1 <0>         0.0904
      4 C3         -0.0000   -0.6953   -1.2103 C.ar      1 <0>         0.2365
      5 C4          0.0131   -2.0857   -1.2162 C.ar      1 <0>        -0.1961
      6 C5          0.0116   -2.7711   -2.4116 C.ar      1 <0>        -0.0156
      7 C6         -0.0037   -2.0679   -3.6178 C.ar      1 <0>        -0.0775
      8 C7         -0.0173   -0.6717   -3.6085 C.ar      1 <0>        -0.0376
      9 C8         -0.0209    0.0078   -2.4098 C.ar      1 <0>        -0.1975
     10 C9         -0.0049   -2.7999   -4.9017 C.2       1 <0>         0.1210
     11 N2          0.0009   -4.1061   -5.1389 N.2       1 <0>        -0.2600
     12 N3         -0.0013   -4.5700   -6.3118 N.2       1 <0>        -0.2695
     13 C10        -0.0094   -3.7810   -7.3781 C.2       1 <0>         0.2877
     14 S1         -0.0225   -2.1780   -6.5806 S.3       1 <0>        -0.0289
     15 N4         -0.0130   -4.1060   -8.7294 N.am      1 <0>        -0.6118
     16 C11        -0.0083   -5.3985   -9.1116 C.2       1 <0>         0.4936
     17 O1         -0.0010   -6.2778   -8.2764 O.2       1 <0>        -0.4300
     18 C12        -0.0122   -5.7509  -10.5768 C.3       1 <0>         0.1478
     19 H1         -0.8974   -5.3329  -11.0562 H         1 <0>         0.1212
     20 C13         1.2607   -5.1991  -11.2527 C.3       1 <0>        -0.1254
     21 C14         2.2081   -6.4278  -11.2651 C.3       1 <0>        -0.1294
     22 C15         1.2096   -7.5881  -11.5028 C.3       1 <0>         0.1122
     23 N5          0.0017   -7.2121  -10.7397 N.pl3     1 <0>        -0.9858
     24 S2         -1.1442   -8.2585  -10.1617 S.o2      1 <0>         2.7148
     25 O2         -0.5102   -9.5235  -10.0312 O.2       1 <0>        -0.9551
     26 O3         -1.7752   -7.6062   -9.0682 O.2       1 <0>        -0.9056
     27 C16        -2.3682   -8.4358  -11.4167 C.ar      1 <0>        -0.6689
     28 C17        -2.5581   -9.6408  -12.0203 C.ar      1 <0>         0.0232
     29 C18        -3.5202   -9.8030  -13.0148 C.ar      1 <0>        -0.1453
     30 C19        -4.2987   -8.7583  -13.4109 C.ar      1 <0>        -0.0349
     31 C20        -4.1306   -7.5008  -12.8097 C.ar      1 <0>        -0.1236
     32 C21        -3.1562   -7.3348  -11.7942 C.ar      1 <0>         0.2048
     33 N6         -2.9952   -6.1404  -11.2156 N.ar      1 <0>        -0.4918
     34 C22        -3.7271   -5.1102  -11.5642 C.ar      1 <0>         0.1560
     35 C23        -4.7059   -5.2066  -12.5511 C.ar      1 <0>        -0.1811
     36 C24        -4.9145   -6.3953  -13.1906 C.ar      1 <0>        -0.0398
     37 H2          1.0048    1.8381    0.0023 H         1 <0>         0.0522
     38 H3         -0.5450    1.8219   -0.8730 H         1 <0>         0.0713
     39 H4         -0.5280    1.8123    0.9069 H         1 <0>         0.0698
     40 H5          0.0224   -0.0395    2.0990 H         1 <0>         0.0757
     41 H6         -0.8567   -1.3823    1.3294 H         1 <0>         0.0583
     42 H7          0.9230   -1.3581    1.3125 H         1 <0>         0.0585
     43 H8          0.0249   -2.6290   -0.2829 H         1 <0>         0.1311
     44 H9          0.0225   -3.8510   -2.4156 H         1 <0>         0.1378
     45 H10        -0.0291   -0.1250   -4.5399 H         1 <0>         0.1255
     46 H11        -0.0356    1.0877   -2.4019 H         1 <0>         0.1315
     47 H12        -0.0188   -3.4027   -9.3974 H         1 <0>         0.4257
     48 H13         1.0453   -4.8680  -12.2686 H         1 <0>         0.0947
     49 H14         1.6891   -4.3878  -10.6642 H         1 <0>         0.0862
     50 H15         2.9275   -6.3582  -12.0810 H         1 <0>         0.0926
     51 H16         2.7159   -6.5393  -10.3071 H         1 <0>         0.0814
     52 H17         0.9746   -7.6751  -12.5636 H         1 <0>         0.0732
     53 H18         1.6201   -8.5250  -11.1262 H         1 <0>         0.0905
     54 H19        -1.9529  -10.4848  -11.7239 H         1 <0>         0.1520
     55 H20        -3.6502  -10.7700  -13.4778 H         1 <0>         0.1422
     56 H21        -5.0408   -8.8961  -14.1834 H         1 <0>         0.1408
     57 H22        -3.5673   -4.1617  -11.0731 H         1 <0>         0.1657
     58 H23        -5.2933   -4.3399  -12.8162 H         1 <0>         0.1443
     59 H24        -5.6682   -6.4876  -13.9586 H         1 <0>         0.1444
@<TRIPOS>BOND
     1    1    2 1
     2    1   37 1
     3    1   38 1
     4    1   39 1
     5    2    3 1
     6    2    4 1
     7    3   40 1
     8    3   41 1
     9    3   42 1
    10    4    9 ar
    11    4    5 ar
    12    5    6 ar
    13    5   43 1
    14    6    7 ar
    15    6   44 1
    16    7    8 ar
    17    7   10 1
    18    8    9 ar
    19    8   45 1
    20    9   46 1
    21   10   14 1
    22   10   11 2
    23   11   12 1
    24   12   13 2
    25   13   14 1
    26   13   15 1
    27   15   16 am
    28   15   47 1
    29   16   17 2
    30   16   18 1
    31   18   19 1
    32   18   23 1
    33   18   20 1
    34   20   21 1
    35   20   48 1
    36   20   49 1
    37   21   22 1
    38   21   50 1
    39   21   51 1
    40   22   23 1
    41   22   52 1
    42   22   53 1
    43   23   24 1
    44   24   25 2
    45   24   26 2
    46   24   27 1
    47   27   32 ar
    48   27   28 ar
    49   28   29 ar
    50   28   54 1
    51   29   30 ar
    52   29   55 1
    53   30   31 ar
    54   30   56 1
    55   31   36 ar
    56   31   32 ar
    57   32   33 ar
    58   33   34 ar
    59   34   35 ar
    60   34   57 1
    61   35   36 ar
    62   35   58 1
    63   36   59 1
