@<TRIPOS>MOLECULE
ZINC04288515
   25    25     0     0     0
SMALL
USER_CHARGES

@<TRIPOS>ATOM
      1 C1         -0.0169    1.3920    0.0097 C.ar      1 <0>        -0.0536
      2 C2          1.1701    2.0948    0.0021 C.ar      1 <0>        -0.0610
      3 C3          2.3776    1.4193   -0.0130 C.ar      1 <0>        -0.0209
      4 C4          2.4036    0.0359   -0.0212 C.ar      1 <0>        -0.0649
      5 C5          1.2241   -0.6793   -0.0142 C.ar      1 <0>        -0.0676
      6 C6          0.0021   -0.0041    0.0020 C.ar      1 <0>        -0.0679
      7 C7         -1.2652   -0.7634    0.0105 C.2       1 <0>         0.5133
      8 O1         -2.3270   -0.1730    0.0242 O.2       1 <0>        -0.4533
      9 O2         -1.2434   -2.1092    0.0031 O.3       1 <0>        -0.2252
     10 N1         -2.5275   -2.7060    0.0126 N.2       1 <0>        -0.3603
     11 C8         -2.6418   -3.9937    0.0069 C.2       1 <0>         0.3667
     12 C9         -4.0084   -4.6289    0.0170 C.3       1 <0>         0.0085
     13 Cl1        -5.2697   -3.3407    0.0365 Cl        1 <0>        -0.1155
     14 N2         -1.5161   -4.7841   -0.0086 N.pl3     1 <0>        -0.8605
     15 N3          3.6473    2.1800   -0.0211 N.pl3     1 <0>         0.0268
     16 O3          3.6278    3.3889   -0.0144 O.2       1 <0>        -0.1464
     17 O4          4.7039    1.5926   -0.0343 O.3       1 <0>        -0.1477
     18 H1         -0.9586    1.9205    0.0260 H         1 <0>         0.1652
     19 H2          1.1569    3.1747    0.0077 H         1 <0>         0.1664
     20 H3          3.3496   -0.4851   -0.0333 H         1 <0>         0.1638
     21 H4          1.2458   -1.7591   -0.0213 H         1 <0>         0.1586
     22 H5         -4.1301   -5.2432   -0.8751 H         1 <0>         0.1292
     23 H6         -4.1124   -5.2528    0.9048 H         1 <0>         0.1292
     24 H7         -0.6365   -4.3752   -0.0151 H         1 <0>         0.4120
     25 H8         -1.6019   -5.7502   -0.0129 H         1 <0>         0.4052
@<TRIPOS>BOND
     1    1    6 ar
     2    1    2 ar
     3    1   18 1
     4    2    3 ar
     5    2   19 1
     6    3    4 ar
     7    3   15 1
     8    4    5 ar
     9    4   20 1
    10    5    6 ar
    11    5   21 1
    12    6    7 1
    13    7    8 2
    14    7    9 1
    15    9   10 1
    16   10   11 2
    17   11   12 1
    18   11   14 1
    19   12   13 1
    20   12   22 1
    21   12   23 1
    22   14   24 1
    23   14   25 1
    24   15   16 2
    25   15   17 1
