@<TRIPOS>MOLECULE
ZINC20922919
   43    45     0     0     0
SMALL
USER_CHARGES
N'-[2-[[4-amino-5-(2-hydroxyphenyl)-1,2,4-triazol-3-yl]sulfanyl]acetyl]-4-fluoro-benzohydrazide
@<TRIPOS>ATOM
      1 C1          1.2070   -0.6755   -0.0131 C.ar      1 <0>        -0.1601
      2 C2          2.3983    0.0293   -0.0211 C.ar      1 <0>        -0.0570
      3 C3          2.3921    1.4115   -0.0132 C.ar      1 <0>        -0.1618
      4 C4          1.1904    2.1005    0.0020 C.ar      1 <0>         0.2185
      5 C5         -0.0168    1.3912    0.0097 C.ar      1 <0>        -0.1243
      6 C6          0.0021   -0.0041    0.0020 C.ar      1 <0>        -0.0690
      7 C7         -1.3043    2.1165    0.0197 C.2       1 <0>         0.2272
      8 N1         -1.4660    3.4193    0.0333 N.2       1 <0>        -0.2946
      9 N2         -2.7187    3.7060    0.0364 N.2       1 <0>        -0.2662
     10 C8         -3.4340    2.6040    0.0333 C.2       1 <0>         0.1186
     11 N3         -2.5599    1.5539    0.0226 N.pl3     1 <0>        -0.2028
     12 N4         -2.8682    0.2232    0.0168 N.3       1 <0>        -0.7639
     13 S1         -5.1929    2.4996    0.0414 S.3       1 <0>         0.0945
     14 C9         -5.6122    4.2603    0.0541 C.3       1 <0>        -0.1415
     15 C10        -7.1107    4.4198    0.0626 C.2       1 <0>         0.5381
     16 O1         -7.8249    3.4396    0.0602 O.2       1 <0>        -0.5320
     17 N5         -7.6572    5.6517    0.0727 N.am      1 <0>        -0.5226
     18 N6         -9.0504    5.8000    0.0806 N.am      1 <0>        -0.5284
     19 C11        -9.5969    7.0319    0.0907 C.2       1 <0>         0.5668
     20 O2         -8.8810    8.0145    0.0930 O.2       1 <0>        -0.5360
     21 C12       -11.0658    7.1883    0.0990 C.ar      1 <0>        -0.1414
     22 C13       -11.8905    6.0613    0.0905 C.ar      1 <0>        -0.0552
     23 C14       -13.2605    6.2128    0.1046 C.ar      1 <0>        -0.1587
     24 C15       -13.8201    7.4814    0.1146 C.ar      1 <0>         0.1320
     25 C16       -13.0059    8.6038    0.1172 C.ar      1 <0>        -0.1592
     26 C17       -11.6347    8.4636    0.1095 C.ar      1 <0>        -0.0241
     27 F1        -15.1635    7.6244    0.1222 F         1 <0>        -0.1302
     28 O3          1.1832    3.4588    0.0089 O.3       1 <0>        -0.5142
     29 H1          1.2209   -1.7554   -0.0190 H         1 <0>         0.1335
     30 H2          3.3376   -0.5036   -0.0333 H         1 <0>         0.1370
     31 H3          3.3253    1.9550   -0.0192 H         1 <0>         0.1403
     32 H4         -0.9253   -0.5575    0.0083 H         1 <0>         0.1212
     33 H5         -3.9204   -0.0976    0.0201 H         1 <0>         0.4448
     34 H6         -2.0643   -0.5276    0.0089 H         1 <0>         0.4437
     35 H7         -5.1882    4.7317    0.9530 H         1 <0>         0.1370
     36 H8         -5.1972    4.7426   -0.8432 H         1 <0>         0.1370
     37 H9         -7.0094    6.5407    0.0747 H         1 <0>         0.4654
     38 H10        -9.6982    4.9110    0.0786 H         1 <0>         0.4572
     39 H11       -11.4556    5.0728    0.0776 H         1 <0>         0.1370
     40 H12       -13.8991    5.3419    0.1030 H         1 <0>         0.1465
     41 H13       -13.4469    9.5896    0.1257 H         1 <0>         0.1474
     42 H14       -11.0015    9.3384    0.1119 H         1 <0>         0.1502
     43 H15         0.2277    4.0037    0.0210 H         1 <0>         0.4490
@<TRIPOS>BOND
     1    1    6 ar
     2    1    2 ar
     3    1   29 1
     4    2    3 ar
     5    2   30 1
     6    3    4 ar
     7    3   31 1
     8    4    5 ar
     9    4   28 1
    10    5    6 ar
    11    5    7 1
    12    6   32 1
    13    7   11 1
    14    7    8 2
    15    8    9 1
    16    9   10 2
    17   10   11 1
    18   10   13 1
    19   11   12 1
    20   12   33 1
    21   12   34 1
    22   13   14 1
    23   14   15 1
    24   14   35 1
    25   14   36 1
    26   15   16 2
    27   15   17 am
    28   17   18 1
    29   17   37 1
    30   18   19 am
    31   18   38 1
    32   19   20 2
    33   19   21 1
    34   21   26 ar
    35   21   22 ar
    36   22   23 ar
    37   22   39 1
    38   23   24 ar
    39   23   40 1
    40   24   25 ar
    41   24   27 1
    42   25   26 ar
    43   25   41 1
    44   26   42 1
    45   28   43 1
