@<TRIPOS>MOLECULE
ZINC20722594
   54    56     0     0     0
SMALL
USER_CHARGES

@<TRIPOS>ATOM
      1 C1          2.9982    0.3452   -0.3767 C.3       1 <0>        -0.1481
      2 C2          4.1681   -0.6095   -0.1302 C.3       1 <0>        -0.1085
      3 C3          3.7276   -2.0439   -0.4291 C.3       1 <0>        -0.1022
      4 H1          3.3264   -2.0973   -1.4411 H         1 <0>         0.0988
      5 C4          4.9296   -2.9825   -0.3068 C.3       1 <0>        -0.1482
      6 C5          2.6482   -2.4646    0.5703 C.3       1 <0>         0.1725
      7 H2          1.8379   -1.7356    0.5583 H         1 <0>         0.1353
      8 C6          2.1106   -3.8196    0.1883 C.2       1 <0>         0.4606
      9 O1          2.3615   -4.7838    0.8717 O.2       1 <0>        -0.4974
     10 O2          1.3528   -3.9553   -0.9114 O.3       1 <0>        -0.3436
     11 C7          0.7838   -5.2438   -1.1522 C.3       1 <0>         0.0327
     12 N1          3.2264   -2.5300    1.9148 N.am      1 <0>        -0.7240
     13 C8          3.3074   -1.4156    2.6685 C.2       1 <0>         0.7200
     14 O3          2.8218   -0.3749    2.2690 O.2       1 <0>        -0.5450
     15 N2          3.9266   -1.4547    3.8649 N.am      1 <0>        -0.6230
     16 C9          3.9190   -0.2845    4.7554 C.3       1 <0>         0.1263
     17 C10         5.3559    0.2248    4.9271 C.3       1 <0>        -0.0794
     18 C11         6.2621   -0.9527    5.1738 C.2       1 <0>         0.0899
     19 C12         5.9492   -2.2376    4.9006 C.2       1 <0>         0.0030
     20 N3          6.9892   -3.0004    5.2441 N.pl3     1 <0>        -0.4601
     21 C13         7.9380   -2.2393    5.7243 C.cat     1 <0>         0.3104
     22 N4          7.5196   -0.9529    5.6973 N.pl3     1 <0>        -0.5022
     23 H3          8.0205   -0.1773    5.9947 H         1 <0>         0.4690
     24 C14         4.6226   -2.6736    4.3151 C.3       1 <0>         0.2643
     25 H4          4.7910   -3.3388    3.4682 H         1 <0>         0.1281
     26 C15         3.8002   -3.3758    5.3646 C.ar      1 <0>        -0.1371
     27 C16         4.1643   -3.2960    6.6955 C.ar      1 <0>        -0.1201
     28 C17         3.4086   -3.9406    7.6596 C.ar      1 <0>         0.1009
     29 C18         2.2878   -4.6653    7.2907 C.ar      1 <0>        -0.1019
     30 C19         1.9238   -4.7451    5.9602 C.ar      1 <0>        -0.1098
     31 C20         2.6768   -4.0959    4.9964 C.ar      1 <0>         0.1204
     32 F1          2.3180   -4.1697    3.6960 F         1 <0>        -0.1125
     33 F2          3.7647   -3.8630    8.9605 F         1 <0>        -0.1254
     34 H5          2.1379    0.0249    0.2109 H         1 <0>         0.0681
     35 H6          3.2845    1.3546   -0.0814 H         1 <0>         0.0535
     36 H7          2.7388    0.3362   -1.4354 H         1 <0>         0.0491
     37 H8          4.9995   -0.3414   -0.7822 H         1 <0>         0.0625
     38 H9          4.4841   -0.5358    0.9104 H         1 <0>         0.0625
     39 H10         5.3308   -2.9291    0.7053 H         1 <0>         0.0489
     40 H11         4.6158   -4.0044   -0.5197 H         1 <0>         0.0548
     41 H12         5.6986   -2.6828   -1.0188 H         1 <0>         0.0671
     42 H13         1.5813   -5.9800   -1.2533 H         1 <0>         0.0646
     43 H14         0.1396   -5.5184   -0.3169 H         1 <0>         0.0639
     44 H15         0.1966   -5.2159   -2.0700 H         1 <0>         0.1096
     45 H16         3.5509   -3.3753    2.2626 H         1 <0>         0.4039
     46 H17         3.3033    0.5018    4.3187 H         1 <0>         0.1307
     47 H18         3.5145   -0.5685    5.7269 H         1 <0>         0.0873
     48 H19         5.6700    0.7441    4.0217 H         1 <0>         0.1189
     49 H20         5.4029    0.9063    5.7765 H         1 <0>         0.1205
     50 H21         8.8974   -2.5812    6.0835 H         1 <0>         0.2732
     51 H22         5.0386   -2.7311    6.9832 H         1 <0>         0.1336
     52 H23         1.6984   -5.1686    8.0429 H         1 <0>         0.1577
     53 H24         1.0499   -5.3106    5.6724 H         1 <0>         0.1588
     54 H25         7.0342   -3.9650    5.1521 H         1 <0>         0.4675
@<TRIPOS>BOND
     1    1    2 1
     2    1   34 1
     3    1   35 1
     4    1   36 1
     5    2    3 1
     6    2   37 1
     7    2   38 1
     8    3    4 1
     9    3    5 1
    10    3    6 1
    11    5   39 1
    12    5   40 1
    13    5   41 1
    14    6    7 1
    15    6    8 1
    16    6   12 1
    17    8    9 2
    18    8   10 1
    19   10   11 1
    20   11   42 1
    21   11   43 1
    22   11   44 1
    23   12   13 am
    24   12   45 1
    25   13   14 2
    26   13   15 am
    27   15   24 1
    28   15   16 1
    29   16   17 1
    30   16   46 1
    31   16   47 1
    32   17   18 1
    33   17   48 1
    34   17   49 1
    35   18   22 1
    36   18   19 2
    37   19   20 1
    38   19   24 1
    39   20   21 2
    40   20   54 1
    41   21   22 1
    42   21   50 1
    43   22   23 1
    44   24   25 1
    45   24   26 1
    46   26   31 ar
    47   26   27 ar
    48   27   28 ar
    49   27   51 1
    50   28   29 ar
    51   28   33 1
    52   29   30 ar
    53   29   52 1
    54   30   31 ar
    55   30   53 1
    56   31   32 1
