@<TRIPOS>MOLECULE
ZINC39693384
   73    75     0     0     0
SMALL
USER_CHARGES

@<TRIPOS>ATOM
      1 C1          2.2423   -6.0911    0.0224 C.3       1 <0>        -0.1872
      2 C2          1.7111   -6.3610   -1.3868 C.3       1 <0>         0.1352
      3 C3          2.4284   -7.5762   -1.9781 C.3       1 <0>        -0.1860
      4 C4          0.2079   -6.6382   -1.3208 C.3       1 <0>        -0.1428
      5 O1          1.9491   -5.2191   -2.2123 O.3       1 <0>        -0.3553
      6 C5          3.2304   -4.8390   -2.3753 C.2       1 <0>         0.6540
      7 O2          4.1221   -5.4599   -1.8315 O.2       1 <0>        -0.5616
      8 N1          3.5239   -3.7699   -3.1417 N.am      1 <0>        -0.7132
      9 C6          4.9181   -3.3564   -3.3190 C.3       1 <0>         0.1286
     10 C7          4.9736   -2.1262   -4.2271 C.3       1 <0>         0.1044
     11 N2          6.3677   -1.7127   -4.4044 N.am      1 <0>        -0.7248
     12 C8          6.6612   -0.6436   -5.1708 C.2       1 <0>         0.5238
     13 O3          5.7712   -0.0239   -5.7136 O.2       1 <0>        -0.5160
     14 C9          8.0954   -0.2181   -5.3532 C.3       1 <0>        -0.1140
     15 H1          8.6845   -0.4861   -4.4762 H         1 <0>         0.1151
     16 C10         8.1766    1.3031   -5.6116 C.3       1 <0>         0.1083
     17 N3          9.2635    1.4563   -6.6071 N.am      1 <0>        -0.6202
     18 C11         9.0811    0.3114   -7.5312 C.3       1 <0>         0.1096
     19 C12         8.6895   -0.8653   -6.6155 C.3       1 <0>        -0.0721
     20 C13         9.9232   -1.6882   -6.2567 C.3       1 <0>        -0.1353
     21 C14        10.4625   -2.3673   -7.5188 C.3       1 <0>        -0.0109
     22 N4          9.4238   -3.2308   -8.0937 N.4       1 <0>        -0.5047
     23 C15         8.2777   -2.4193   -8.5210 C.3       1 <0>        -0.0076
     24 C16         7.6462   -1.7420   -7.3014 C.3       1 <0>        -0.1469
     25 C17        10.2051    2.4191   -6.6605 C.2       1 <0>         0.5374
     26 O4         11.0343    2.4080   -7.5456 O.2       1 <0>        -0.5124
     27 C18        10.2277    3.5095   -5.6205 C.3       1 <0>         0.1243
     28 H2         10.0158    3.0885   -4.6376 H         1 <0>         0.1092
     29 C19         9.1791    4.5873   -5.9671 C.3       1 <0>        -0.1216
     30 C20         9.8967    5.9074   -5.5805 C.3       1 <0>        -0.1276
     31 C21        11.3635    5.5875   -5.9624 C.3       1 <0>         0.0793
     32 N5         11.5442    4.1639   -5.6107 N.am      1 <0>        -0.5808
     33 C22        12.7176    3.5640   -5.3281 C.2       1 <0>         0.5103
     34 O5         12.7439    2.3835   -5.0515 O.2       1 <0>        -0.4781
     35 C23        13.9968    4.3602   -5.3557 C.3       1 <0>         0.4581
     36 F1         15.0722    3.5264   -5.0310 F         1 <0>        -0.1490
     37 F2         14.1882    4.8909   -6.6360 F         1 <0>        -0.1611
     38 F3         13.9175    5.4025   -4.4260 F         1 <0>        -0.1636
     39 H3          3.3132   -5.8936   -0.0246 H         1 <0>         0.0857
     40 H4          1.7313   -5.2253    0.4437 H         1 <0>         0.0611
     41 H5          2.0607   -6.9621    0.6521 H         1 <0>         0.0739
     42 H6          2.2468   -8.4472   -1.3484 H         1 <0>         0.0738
     43 H7          2.0499   -7.7685   -2.9820 H         1 <0>         0.0597
     44 H8          3.4993   -7.3787   -2.0251 H         1 <0>         0.0851
     45 H9         -0.3031   -5.7725   -0.8995 H         1 <0>         0.0686
     46 H10        -0.1705   -6.8305   -2.3248 H         1 <0>         0.0678
     47 H11         0.0264   -7.5092   -0.6911 H         1 <0>         0.0842
     48 H12         2.8120   -3.2743   -3.5759 H         1 <0>         0.4109
     49 H13         5.3507   -3.1117   -2.3489 H         1 <0>         0.0801
     50 H14         5.4832   -4.1697   -3.7742 H         1 <0>         0.0757
     51 H15         4.5410   -2.3709   -5.1972 H         1 <0>         0.0818
     52 H16         4.4084   -1.3129   -3.7720 H         1 <0>         0.0849
     53 H17         7.0796   -2.2083   -3.9703 H         1 <0>         0.4047
     54 H18         7.2343    1.6703   -6.0181 H         1 <0>         0.1052
     55 H19         8.4264    1.8319   -4.6918 H         1 <0>         0.0935
     56 H20         8.2840    0.5213   -8.2444 H         1 <0>         0.0869
     57 H21        10.0123    0.0921   -8.0536 H         1 <0>         0.0895
     58 H22        10.6887   -1.0335   -5.8403 H         1 <0>         0.1203
     59 H23         9.6535   -2.4469   -5.5221 H         1 <0>         0.0974
     60 H24        10.7470   -1.6075   -8.2467 H         1 <0>         0.1337
     61 H25        11.3344   -2.9693   -7.2628 H         1 <0>         0.1408
     62 H26         9.8006   -3.7236   -8.8895 H         1 <0>         0.4347
     63 H27         8.6140   -1.6584   -9.2253 H         1 <0>         0.1332
     64 H28         7.5393   -3.0596   -9.0037 H         1 <0>         0.1397
     65 H29         7.2948   -2.5026   -6.6041 H         1 <0>         0.0969
     66 H30         6.8065   -1.1254   -7.6218 H         1 <0>         0.1265
     67 H31         8.9476    4.5717   -7.0321 H         1 <0>         0.0885
     68 H32         8.2754    4.4513   -5.3730 H         1 <0>         0.1020
     69 H33         9.5148    6.7451   -6.1640 H         1 <0>         0.1029
     70 H34         9.8051    6.1036   -4.5122 H         1 <0>         0.0901
     71 H35        11.5188    5.7382   -7.0307 H         1 <0>         0.0912
     72 H36        12.0496    6.2090   -5.3871 H         1 <0>         0.0964
     73 H37         9.1216   -3.8985   -7.4003 H         1 <0>         0.4277
@<TRIPOS>BOND
     1    1    2 1
     2    1   39 1
     3    1   40 1
     4    1   41 1
     5    2    3 1
     6    2    4 1
     7    2    5 1
     8    3   42 1
     9    3   43 1
    10    3   44 1
    11    4   45 1
    12    4   46 1
    13    4   47 1
    14    5    6 1
    15    6    7 2
    16    6    8 am
    17    8    9 1
    18    8   48 1
    19    9   10 1
    20    9   49 1
    21    9   50 1
    22   10   11 1
    23   10   51 1
    24   10   52 1
    25   11   12 am
    26   11   53 1
    27   12   13 2
    28   12   14 1
    29   14   15 1
    30   14   19 1
    31   14   16 1
    32   16   17 1
    33   16   54 1
    34   16   55 1
    35   17   18 1
    36   17   25 am
    37   18   19 1
    38   18   56 1
    39   18   57 1
    40   19   24 1
    41   19   20 1
    42   20   21 1
    43   20   58 1
    44   20   59 1
    45   21   22 1
    46   21   60 1
    47   21   61 1
    48   22   23 1
    49   22   62 1
    50   22   73 1
    51   23   24 1
    52   23   63 1
    53   23   64 1
    54   24   65 1
    55   24   66 1
    56   25   26 2
    57   25   27 1
    58   27   28 1
    59   27   32 1
    60   27   29 1
    61   29   30 1
    62   29   67 1
    63   29   68 1
    64   30   31 1
    65   30   69 1
    66   30   70 1
    67   31   32 1
    68   31   71 1
    69   31   72 1
    70   32   33 am
    71   33   34 2
    72   33   35 1
    73   35   36 1
    74   35   37 1
    75   35   38 1
