@<TRIPOS>MOLECULE
ZINC12348428
   43    47     0     0     0
SMALL
USER_CHARGES

@<TRIPOS>ATOM
      1 C1         -0.0167    1.3786    0.0096 C.ar      1 <0>        -0.1375
      2 C2          1.1696    2.0893    0.0021 C.ar      1 <0>        -0.0883
      3 C3          2.3774    1.4197   -0.0134 C.ar      1 <0>        -0.1627
      4 C4          2.3997    0.0310   -0.0211 C.ar      1 <0>         0.1663
      5 C5          1.2065   -0.6798   -0.0130 C.ar      1 <0>        -0.1384
      6 C6          0.0021   -0.0041    0.0020 C.ar      1 <0>        -0.0830
      7 N1          3.6210   -0.6501   -0.0373 N.am      1 <0>        -0.3505
      8 C7          3.7817   -1.9916   -0.0515 C.2       1 <0>         0.5610
      9 O1          2.8889   -2.8215   -0.0529 O.2       1 <0>        -0.5089
     10 C8          5.1512   -2.2583   -0.0647 C.2       1 <0>        -0.3613
     11 C9          5.8184   -1.0590   -0.0560 C.2       1 <0>         0.4270
     12 N2          4.8952   -0.0595   -0.0477 N.pl3     1 <0>        -0.4881
     13 H1          5.0836    0.8920   -0.0468 H         1 <0>         0.4451
     14 N3          7.1913   -1.0029   -0.0581 N.pl3     1 <0>        -0.6231
     15 C10         7.8994   -2.1447    0.2386 C.2       1 <0>         0.2118
     16 C11         7.3306   -3.3672    0.2391 C.2       1 <0>        -0.2450
     17 C12         5.8678   -3.5792   -0.0879 C.3       1 <0>         0.1633
     18 H2          5.4237   -4.2463    0.6509 H         1 <0>         0.1150
     19 C13         5.7434   -4.1940   -1.4581 C.2       1 <0>         0.2295
     20 N4          5.7322   -3.5169   -2.6265 N.pl3     1 <0>        -0.5625
     21 H3          5.8024   -2.5556   -2.7354 H         1 <0>         0.4085
     22 C14         5.6037   -4.4405   -3.6285 C.2       1 <0>        -0.0663
     23 C15         5.5408   -5.6494   -3.0384 C.2       1 <0>        -0.0267
     24 N5          5.6342   -5.4693   -1.7125 N.2       1 <0>        -0.4649
     25 C16         8.0856   -4.5165    0.5438 C.2       1 <0>         0.3879
     26 O2          7.5365   -5.6004    0.5600 O.2       1 <0>        -0.4285
     27 C17         9.5550   -4.4331    0.8489 C.3       1 <0>        -0.1682
     28 C18        10.1420   -3.2131    0.1306 C.3       1 <0>        -0.1117
     29 C19         9.3634   -1.9738    0.5753 C.3       1 <0>        -0.0939
     30 H4         -0.9598    1.9046    0.0260 H         1 <0>         0.1290
     31 H5          1.1515    3.1691    0.0080 H         1 <0>         0.1305
     32 H6          3.3034    1.9753   -0.0200 H         1 <0>         0.1179
     33 H7          1.2204   -1.7597   -0.0193 H         1 <0>         0.1596
     34 H8         -0.9261   -0.5562    0.0082 H         1 <0>         0.1352
     35 H9          7.6522   -0.1748   -0.2651 H         1 <0>         0.4220
     36 H10         5.5606   -4.2386   -4.6886 H         1 <0>         0.1722
     37 H11         5.4373   -6.5980   -3.5443 H         1 <0>         0.1674
     38 H12         9.6993   -4.3281    1.9241 H         1 <0>         0.1022
     39 H13        10.0525   -5.3374    0.4985 H         1 <0>         0.0994
     40 H14        11.1934   -3.1013    0.3958 H         1 <0>         0.0891
     41 H15        10.0460   -3.3402   -0.9477 H         1 <0>         0.0752
     42 H16         9.7540   -1.0961    0.0603 H         1 <0>         0.0901
     43 H17         9.4750   -1.8416    1.6515 H         1 <0>         0.1043
@<TRIPOS>BOND
     1    1    6 ar
     2    1    2 ar
     3    1   30 1
     4    2    3 ar
     5    2   31 1
     6    3    4 ar
     7    3   32 1
     8    4    5 ar
     9    4    7 1
    10    5    6 ar
    11    5   33 1
    12    6   34 1
    13    7   12 1
    14    7    8 am
    15    8    9 2
    16    8   10 1
    17   10   17 1
    18   10   11 2
    19   11   12 1
    20   11   14 1
    21   12   13 1
    22   14   15 1
    23   14   35 1
    24   15   29 1
    25   15   16 2
    26   16   17 1
    27   16   25 1
    28   17   18 1
    29   17   19 1
    30   19   24 2
    31   19   20 1
    32   20   21 1
    33   20   22 1
    34   22   23 2
    35   22   36 1
    36   23   24 1
    37   23   37 1
    38   25   26 2
    39   25   27 1
    40   27   28 1
    41   27   38 1
    42   27   39 1
    43   28   29 1
    44   28   40 1
    45   28   41 1
    46   29   42 1
    47   29   43 1
