@<TRIPOS>MOLECULE
ZINC26822150
   65    67     0     0     0
SMALL
USER_CHARGES
4-[(R)-diethoxyphosphoryl-[4-(2-pyridyl)piperazin-1-yl]methyl]-2,6-dimethoxy-phenol
@<TRIPOS>ATOM
      1 C1          1.3798    9.3087    4.1057 C.3       1 <0>        -0.1618
      2 C2          0.4356    9.9521    3.0882 C.3       1 <0>         0.0978
      3 O1          0.8203    9.5622    1.7683 O.3       1 <0>        -0.7577
      4 P1          0.0441   10.0555    0.4469 P.3       1 <0>         2.4160
      5 O2         -1.3922    9.7182    0.5636 O.2       1 <0>        -1.0025
      6 C3          0.7464    9.2249   -1.0161 C.3       1 <0>        -0.4496
      7 H1          1.8340    9.0966   -1.1196 H         1 <0>         0.0957
      8 C4          0.3325    9.9658   -2.2614 C.ar      1 <0>        -0.0769
      9 C5         -0.8846    9.6892   -2.8555 C.ar      1 <0>        -0.1740
     10 C6         -1.2716   10.3728   -3.9982 C.ar      1 <0>         0.1185
     11 C7         -0.4288   11.3287   -4.5528 C.ar      1 <0>         0.1209
     12 C8          0.7965   11.5997   -3.9556 C.ar      1 <0>         0.0735
     13 C9          1.1734   10.9161   -2.8096 C.ar      1 <0>        -0.1834
     14 O3          1.6249   12.5338   -4.4947 O.3       1 <0>        -0.3177
     15 C10         2.8685   12.7601   -3.8282 C.3       1 <0>         0.0279
     16 O4         -0.8022   11.9971   -5.6779 O.3       1 <0>        -0.4908
     17 O5         -2.4717   10.1040   -4.5789 O.3       1 <0>        -0.2976
     18 C11        -3.2863    9.1097   -3.9545 C.3       1 <0>         0.0220
     19 N1          0.2501    7.8437   -1.0803 N.3       1 <0>        -0.5087
     20 C12         0.6560    7.1961   -2.3355 C.3       1 <0>         0.0509
     21 C13         0.0542    5.7903   -2.3989 C.3       1 <0>         0.0187
     22 N2          0.5086    5.0129   -1.2376 N.pl3     1 <0>        -0.4738
     23 C14         0.1027    5.6605    0.0176 C.3       1 <0>         0.0578
     24 C15         0.7045    7.0663    0.0810 C.3       1 <0>         0.0267
     25 C16         0.0390    3.7060   -1.2984 C.ar      1 <0>         0.3616
     26 C17         0.3635    2.8089   -0.2855 C.ar      1 <0>        -0.1491
     27 C18        -0.1145    1.5131   -0.3562 C.ar      1 <0>         0.0224
     28 C19        -0.8954    1.1533   -1.4469 C.ar      1 <0>        -0.1494
     29 C20        -1.1783    2.0946   -2.4158 C.ar      1 <0>         0.1420
     30 N3         -0.7127    3.3258   -2.3198 N.ar      1 <0>        -0.5075
     31 O6          0.2102   11.6492    0.2905 O.3       1 <0>        -0.7475
     32 C21        -0.3338   12.5838    1.2246 C.3       1 <0>         0.1018
     33 C22         0.0061   14.0073    0.7785 C.3       1 <0>        -0.1623
     34 H2          1.0836    9.6089    5.1217 H         1 <0>         0.0837
     35 H3          2.4102    9.6409    3.9109 H         1 <0>         0.0680
     36 H4          1.3244    8.2138    4.0160 H         1 <0>         0.0686
     37 H5         -0.5948    9.6199    3.2830 H         1 <0>         0.0812
     38 H6          0.4909   11.0470    3.1778 H         1 <0>         0.0633
     39 H7         -1.5369    8.9429   -2.4266 H         1 <0>         0.1528
     40 H8          2.1254   11.1261   -2.3449 H         1 <0>         0.1308
     41 H9          3.4367   13.5340   -4.3651 H         1 <0>         0.1101
     42 H10         3.4492   11.8261   -3.8086 H         1 <0>         0.0551
     43 H11         2.6768   13.0944   -2.7979 H         1 <0>         0.0614
     44 H12        -0.1340   12.7534   -6.1156 H         1 <0>         0.4419
     45 H13        -4.2212    8.9922   -4.5221 H         1 <0>         0.1058
     46 H14        -3.5189    9.4198   -2.9251 H         1 <0>         0.0660
     47 H15        -2.7459    8.1518   -3.9357 H         1 <0>         0.0475
     48 H16         0.2942    7.7897   -3.1880 H         1 <0>         0.1120
     49 H17         1.7532    7.1285   -2.3751 H         1 <0>         0.0575
     50 H18        -1.0435    5.8605   -2.3876 H         1 <0>         0.0828
     51 H19         0.3803    5.2932   -3.3244 H         1 <0>         0.1027
     52 H20        -0.9945    5.7281    0.0572 H         1 <0>         0.0877
     53 H21         0.4644    5.0669    0.8701 H         1 <0>         0.1147
     54 H22         1.8023    6.9971    0.0691 H         1 <0>         0.0642
     55 H23         0.3785    7.5644    1.0060 H         1 <0>         0.1112
     56 H24         0.9765    3.1216    0.5469 H         1 <0>         0.1821
     57 H25         0.1176    0.7960    0.4173 H         1 <0>         0.1775
     58 H26        -1.2811    0.1482   -1.5337 H         1 <0>         0.1831
     59 H27        -1.7889    1.8203   -3.2633 H         1 <0>         0.2068
     60 H28        -1.4264   12.4644    1.2686 H         1 <0>         0.0800
     61 H29         0.0956   12.3992    2.2203 H         1 <0>         0.0599
     62 H30        -0.4127   14.7267    1.4976 H         1 <0>         0.0830
     63 H31        -0.4234   14.1919   -0.2172 H         1 <0>         0.0713
     64 H32         1.0987   14.1267    0.7344 H         1 <0>         0.0665
     65 H33        -0.9633    4.0430   -3.1153 H         1 <0>         0.4770
@<TRIPOS>BOND
     1    1    2 1
     2    1   34 1
     3    1   35 1
     4    1   36 1
     5    2    3 1
     6    2   37 1
     7    2   38 1
     8    3    4 1
     9    4    5 2
    10    4    6 1
    11    4   31 1
    12    6    7 1
    13    6    8 1
    14    6   19 1
    15    8   13 ar
    16    8    9 ar
    17    9   10 ar
    18    9   39 1
    19   10   11 ar
    20   10   17 1
    21   11   12 ar
    22   11   16 1
    23   12   13 ar
    24   12   14 1
    25   13   40 1
    26   14   15 1
    27   15   41 1
    28   15   42 1
    29   15   43 1
    30   16   44 1
    31   17   18 1
    32   18   45 1
    33   18   46 1
    34   18   47 1
    35   19   24 1
    36   19   20 1
    37   20   21 1
    38   20   48 1
    39   20   49 1
    40   21   22 1
    41   21   50 1
    42   21   51 1
    43   22   23 1
    44   22   25 1
    45   23   24 1
    46   23   52 1
    47   23   53 1
    48   24   54 1
    49   24   55 1
    50   25   30 ar
    51   25   26 ar
    52   26   27 ar
    53   26   56 1
    54   27   28 ar
    55   27   57 1
    56   28   29 ar
    57   28   58 1
    58   29   30 ar
    59   29   59 1
    60   30   65 1
    61   31   32 1
    62   32   33 1
    63   32   60 1
    64   32   61 1
    65   33   62 1
    66   33   63 1
    67   33   64 1
