@<TRIPOS>MOLECULE
ZINC61781972
   50    51     0     0     0
SMALL
USER_CHARGES

@<TRIPOS>ATOM
      1 C1         -1.5044    0.6415    0.2465 C.3       1 <0>        -0.1312
      2 C2         -0.8747   -0.7194    0.3957 C.ar      1 <0>        -0.0374
      3 C3         -0.2446   -1.3170   -0.6890 C.ar      1 <0>         0.1307
      4 C4          0.3344   -2.5717   -0.5470 C.ar      1 <0>        -0.0679
      5 C5          0.2821   -3.2208    0.6710 C.ar      1 <0>        -0.1008
      6 C6         -0.3457   -2.6232    1.7483 C.ar      1 <0>        -0.0566
      7 C7         -0.9183   -1.3716    1.6120 C.ar      1 <0>        -0.0297
      8 N1         -1.5836   -0.7329    2.7698 N.pl3     1 <0>         0.0294
      9 O1         -1.6317    0.4725    2.8500 O.2       1 <0>        -0.1441
     10 O2         -2.0788   -1.4166    3.6352 O.3       1 <0>        -0.1475
     11 N2         -0.1940   -0.6577   -1.9198 N.am      1 <0>        -0.6335
     12 C8         -0.2452   -1.3651   -3.0659 C.2       1 <0>         0.5128
     13 O3         -0.2400   -2.5783   -3.0309 O.2       1 <0>        -0.4912
     14 C9         -0.3082   -0.6561   -4.3789 C.2       1 <0>         0.5222
     15 O4         -0.3133    0.5570   -4.4138 O.2       1 <0>        -0.4948
     16 N3         -0.3594   -1.3635   -5.5249 N.am      1 <0>        -0.6973
     17 C10        -0.4212   -0.6681   -6.8129 C.3       1 <0>         0.1028
     18 C11        -0.5982   -1.6910   -7.9368 C.3       1 <0>         0.0661
     19 C12        -1.9103   -2.4106   -7.7591 C.ar      1 <0>        -0.1484
     20 C13        -3.0872   -1.8139   -8.1709 C.ar      1 <0>        -0.1209
     21 C14        -4.2907   -2.4740   -8.0079 C.ar      1 <0>        -0.1008
     22 C15        -4.3173   -3.7310   -7.4335 C.ar      1 <0>        -0.0878
     23 C16        -3.1403   -4.3282   -7.0225 C.ar      1 <0>        -0.0998
     24 C17        -1.9363   -3.6699   -7.1894 C.ar      1 <0>        -0.0904
     25 N4         -0.5902   -1.0003   -9.2333 N.4       1 <0>        -0.3804
     26 C18         0.7272   -0.3892   -9.4544 C.3       1 <0>        -0.0563
     27 C19        -0.8680   -1.9663  -10.3045 C.3       1 <0>        -0.0502
     28 H1         -0.8011    1.4056    0.5777 H         1 <0>         0.1011
     29 H2         -1.7591    0.8113   -0.7996 H         1 <0>         0.0728
     30 H3         -2.4084    0.6922    0.8534 H         1 <0>         0.0894
     31 H4          0.8247   -3.0392   -1.3881 H         1 <0>         0.1593
     32 H5          0.7318   -4.1965    0.7820 H         1 <0>         0.1564
     33 H6         -0.3851   -3.1330    2.6996 H         1 <0>         0.1570
     34 H7         -0.1220    0.3092   -1.9495 H         1 <0>         0.4294
     35 H8         -0.3553   -2.3331   -5.4970 H         1 <0>         0.4198
     36 H9         -1.2652    0.0217   -6.8132 H         1 <0>         0.1005
     37 H10         0.5028   -0.1117   -6.9701 H         1 <0>         0.1006
     38 H11         0.2189   -2.4117   -7.9041 H         1 <0>         0.1527
     39 H12        -3.0664   -0.8317   -8.6197 H         1 <0>         0.1203
     40 H13        -5.2103   -2.0074   -8.3290 H         1 <0>         0.1375
     41 H14        -5.2577   -4.2465   -7.3055 H         1 <0>         0.1378
     42 H15        -3.1611   -5.3101   -6.5734 H         1 <0>         0.1394
     43 H16        -1.0163   -4.1379   -6.8717 H         1 <0>         0.1341
     44 H17         1.4837   -1.1711   -9.5221 H         1 <0>         0.1276
     45 H18         0.7115    0.1824  -10.3824 H         1 <0>         0.1327
     46 H19         0.9641    0.2745   -8.6229 H         1 <0>         0.1265
     47 H20        -1.8455   -2.4197  -10.1404 H         1 <0>         0.1270
     48 H21        -0.8621   -1.4538  -11.2665 H         1 <0>         0.1300
     49 H22        -0.1024   -2.7422  -10.3015 H         1 <0>         0.1253
     50 H23        -1.2988   -0.2820   -9.2360 H         1 <0>         0.4258
@<TRIPOS>BOND
     1    1    2 1
     2    1   28 1
     3    1   29 1
     4    1   30 1
     5    2    7 ar
     6    2    3 ar
     7    3    4 ar
     8    3   11 1
     9    4    5 ar
    10    4   31 1
    11    5    6 ar
    12    5   32 1
    13    6    7 ar
    14    6   33 1
    15    7    8 1
    16    8    9 2
    17    8   10 1
    18   11   12 am
    19   11   34 1
    20   12   13 2
    21   12   14 1
    22   14   15 2
    23   14   16 am
    24   16   17 1
    25   16   35 1
    26   17   18 1
    27   17   36 1
    28   17   37 1
    29   18   19 1
    30   18   25 1
    31   18   38 1
    32   19   24 ar
    33   19   20 ar
    34   20   21 ar
    35   20   39 1
    36   21   22 ar
    37   21   40 1
    38   22   23 ar
    39   22   41 1
    40   23   24 ar
    41   23   42 1
    42   24   43 1
    43   25   26 1
    44   25   27 1
    45   25   50 1
    46   26   44 1
    47   26   45 1
    48   26   46 1
    49   27   47 1
    50   27   48 1
    51   27   49 1
