@<TRIPOS>MOLECULE
ZINC36090425
   48    50     0     0     0
SMALL
USER_CHARGES

@<TRIPOS>ATOM
      1 C1         -0.0199    1.5251    0.0985 C.3       1 <0>        -0.1485
      2 C2          0.0009   -0.0047    0.0844 C.3       1 <0>        -0.6298
      3 S1         -1.6997   -0.6320    0.0149 S.o2      1 <0>         2.5958
      4 O1         -2.3794   -0.3391    1.2280 O.2       1 <0>        -0.9371
      5 O2         -2.2875   -0.3150   -1.2394 O.2       1 <0>        -0.9428
      6 N1         -1.5451   -2.2807    0.0046 N.pl3     1 <0>        -0.9387
      7 C3         -1.5911   -3.0272   -1.2600 C.3       1 <0>         0.1016
      8 C4         -2.4905   -4.2522   -1.0485 C.3       1 <0>        -0.1314
      9 C5         -1.8532   -5.1565    0.0061 C.3       1 <0>        -0.0788
     10 C6         -1.5101   -4.3661    1.2414 C.ar      1 <0>        -0.0929
     11 C7         -1.3623   -2.9873    1.2025 C.ar      1 <0>         0.1729
     12 C8         -1.0356   -2.2858    2.3572 C.ar      1 <0>        -0.1535
     13 C9         -0.8534   -2.9587    3.5487 C.ar      1 <0>        -0.1156
     14 C10        -0.9979   -4.3389    3.5916 C.ar      1 <0>         0.1229
     15 C11        -1.3340   -5.0395    2.4383 C.ar      1 <0>        -0.0963
     16 N2         -0.8154   -5.0247    4.7984 N.pl3     1 <0>        -1.0560
     17 S2         -1.4950   -4.4433    6.1921 S.o2      1 <0>         2.7225
     18 O3         -1.1566   -5.3613    7.2226 O.2       1 <0>        -0.9486
     19 O4         -1.1622   -3.0636    6.2614 O.2       1 <0>        -0.9538
     20 C12        -3.2438   -4.5302    5.9946 C.2       1 <0>        -0.8238
     21 C13        -4.0357   -3.5622    5.4782 C.2       1 <0>         0.2314
     22 N3         -5.3067   -4.0153    5.5000 N.pl3     1 <0>        -0.4606
     23 H1         -6.0897   -3.5336    5.1906 H         1 <0>         0.4436
     24 N4         -5.2954   -5.3045    6.0480 N.2       1 <0>        -0.2894
     25 C14        -4.0579   -5.6144    6.3385 C.2       1 <0>         0.1673
     26 C15        -3.5908   -6.9133    6.9432 C.3       1 <0>        -0.0912
     27 C16        -3.5801   -2.2187    4.9697 C.3       1 <0>        -0.1472
     28 H2          1.0020    1.9020    0.1402 H         1 <0>         0.0875
     29 H3         -0.5051    1.8903   -0.8066 H         1 <0>         0.0736
     30 H4         -0.5714    1.8729    0.9720 H         1 <0>         0.0753
     31 H5          0.5524   -0.3525   -0.7891 H         1 <0>         0.1355
     32 H6          0.4862   -0.3698    0.9895 H         1 <0>         0.1371
     33 H7         -2.0055   -2.3963   -2.0464 H         1 <0>         0.1084
     34 H8         -0.5869   -3.3496   -1.5352 H         1 <0>         0.0808
     35 H9         -3.4736   -3.9287   -0.7062 H         1 <0>         0.0743
     36 H10        -2.5899   -4.7986   -1.9863 H         1 <0>         0.0889
     37 H11        -2.5524   -5.9501    0.2695 H         1 <0>         0.0829
     38 H12        -0.9444   -5.5992   -0.4015 H         1 <0>         0.0828
     39 H13        -0.9237   -1.2122    2.3221 H         1 <0>         0.1401
     40 H14        -0.5988   -2.4130    4.4452 H         1 <0>         0.1673
     41 H15        -1.4463   -6.1131    2.4731 H         1 <0>         0.1345
     42 H16        -0.2909   -5.8404    4.8181 H         1 <0>         0.4267
     43 H17        -3.6040   -6.8335    8.0302 H         1 <0>         0.0940
     44 H18        -4.2545   -7.7193    6.6300 H         1 <0>         0.0825
     45 H19        -2.5762   -7.1266    6.6068 H         1 <0>         0.0871
     46 H20        -3.3444   -2.2929    3.9081 H         1 <0>         0.1035
     47 H21        -4.3744   -1.4866    5.1153 H         1 <0>         0.0877
     48 H22        -2.6918   -1.9049    5.5180 H         1 <0>         0.1275
@<TRIPOS>BOND
     1    1    2 1
     2    1   28 1
     3    1   29 1
     4    1   30 1
     5    2    3 1
     6    2   31 1
     7    2   32 1
     8    3    4 2
     9    3    5 2
    10    3    6 1
    11    6   11 1
    12    6    7 1
    13    7    8 1
    14    7   33 1
    15    7   34 1
    16    8    9 1
    17    8   35 1
    18    8   36 1
    19    9   10 1
    20    9   37 1
    21    9   38 1
    22   10   15 ar
    23   10   11 ar
    24   11   12 ar
    25   12   13 ar
    26   12   39 1
    27   13   14 ar
    28   13   40 1
    29   14   15 ar
    30   14   16 1
    31   15   41 1
    32   16   17 1
    33   16   42 1
    34   17   18 2
    35   17   19 2
    36   17   20 1
    37   20   25 1
    38   20   21 2
    39   21   22 1
    40   21   27 1
    41   22   23 1
    42   22   24 1
    43   24   25 2
    44   25   26 1
    45   26   43 1
    46   26   44 1
    47   26   45 1
    48   27   46 1
    49   27   47 1
    50   27   48 1
