@<TRIPOS>MOLECULE
ZINC40775934
   41    43     0     0     0
SMALL
USER_CHARGES

@<TRIPOS>ATOM
      1 C1          1.2649   -2.4951   -2.3621 C.3       1 <0>        -0.1146
      2 C2          0.6097   -1.9182   -1.1337 C.ar      1 <0>        -0.0639
      3 C3         -0.0153   -0.6863   -1.1983 C.ar      1 <0>        -0.1331
      4 C4         -0.6180   -0.1537   -0.0735 C.ar      1 <0>        -0.0631
      5 C5         -0.5976   -0.8511    1.1184 C.ar      1 <0>        -0.1274
      6 C6          0.0291   -2.0884    1.1866 C.ar      1 <0>         0.1474
      7 C7          0.6290   -2.6229    0.0539 C.ar      1 <0>        -0.1475
      8 N1          0.0520   -2.7973    2.3928 N.am      1 <0>        -0.6571
      9 C8          0.1502   -2.1344    3.5622 C.2       1 <0>         0.5377
     10 O1          0.1340   -0.9217    3.5751 O.2       1 <0>        -0.4640
     11 C9          0.2800   -2.9001    4.8537 C.3       1 <0>         0.0915
     12 C10         0.9615   -2.0349    5.8836 C.2       1 <0>         0.5015
     13 O2          0.8765   -0.8268    5.8165 O.2       1 <0>        -0.4580
     14 N2          1.6660   -2.6102    6.8806 N.am      1 <0>        -0.6584
     15 C11         1.8579   -3.9985    6.8695 C.ar      1 <0>         0.0979
     16 C12         2.3728   -4.6474    7.9804 C.ar      1 <0>        -0.1245
     17 C13         2.5437   -6.0192    7.9582 C.ar      1 <0>        -0.1040
     18 C14         2.2020   -6.7445    6.8316 C.ar      1 <0>        -0.1109
     19 C15         1.6922   -6.1022    5.7179 C.ar      1 <0>        -0.1009
     20 C16         1.5237   -4.7281    5.7307 C.ar      1 <0>         0.0730
     21 O3          1.0528   -4.0815    4.6306 O.3       1 <0>        -0.2948
     22 C17        -1.1114   -3.2893    5.3570 C.3       1 <0>        -0.1696
     23 C18        -1.2975    1.1894   -0.1483 C.3       1 <0>        -0.1161
     24 H1          0.5390   -3.0912   -2.9151 H         1 <0>         0.0725
     25 H2          1.6273   -1.6850   -2.9950 H         1 <0>         0.0685
     26 H3          2.1023   -3.1263   -2.0647 H         1 <0>         0.0669
     27 H4         -0.0323   -0.1388   -2.1291 H         1 <0>         0.1238
     28 H5         -1.0683   -0.4344    1.9966 H         1 <0>         0.1384
     29 H6          1.1136   -3.5868    0.1026 H         1 <0>         0.1261
     30 H7         -0.0028   -3.7657    2.3873 H         1 <0>         0.4167
     31 H8          2.0353   -2.0693    7.5961 H         1 <0>         0.4206
     32 H9          2.6404   -4.0827    8.8613 H         1 <0>         0.1355
     33 H10         2.9456   -6.5258    8.8233 H         1 <0>         0.1350
     34 H11         2.3339   -7.8163    6.8212 H         1 <0>         0.1370
     35 H12         1.4261   -6.6716    4.8397 H         1 <0>         0.1414
     36 H13        -1.6057   -3.9133    4.6125 H         1 <0>         0.0921
     37 H14        -1.0181   -3.8431    6.2912 H         1 <0>         0.0831
     38 H15        -1.7017   -2.3887    5.5260 H         1 <0>         0.0916
     39 H16        -2.3439    1.0525   -0.4211 H         1 <0>         0.0722
     40 H17        -1.2365    1.6819    0.8222 H         1 <0>         0.0691
     41 H18        -0.8036    1.8051   -0.8999 H         1 <0>         0.0682
@<TRIPOS>BOND
     1    1    2 1
     2    1   24 1
     3    1   25 1
     4    1   26 1
     5    2    7 ar
     6    2    3 ar
     7    3    4 ar
     8    3   27 1
     9    4    5 ar
    10    4   23 1
    11    5    6 ar
    12    5   28 1
    13    6    7 ar
    14    6    8 1
    15    7   29 1
    16    8    9 am
    17    8   30 1
    18    9   10 2
    19    9   11 1
    20   11   21 1
    21   11   12 1
    22   11   22 1
    23   12   13 2
    24   12   14 am
    25   14   15 1
    26   14   31 1
    27   15   20 ar
    28   15   16 ar
    29   16   17 ar
    30   16   32 1
    31   17   18 ar
    32   17   33 1
    33   18   19 ar
    34   18   34 1
    35   19   20 ar
    36   19   35 1
    37   20   21 1
    38   22   36 1
    39   22   37 1
    40   22   38 1
    41   23   39 1
    42   23   40 1
    43   23   41 1
