@<TRIPOS>MOLECULE
ZINC42031128
   32    34     0     0     0
SMALL
USER_CHARGES

@<TRIPOS>ATOM
      1 C1         -0.6644    1.5832    0.3873 C.3       1 <0>        -0.0687
      2 C2         -0.4240    0.0975    0.3094 C.2       1 <0>         0.1898
      3 N1         -0.4537   -0.6343   -0.7715 N.2       1 <0>        -0.2869
      4 N2         -0.2047   -1.8614   -0.4807 N.2       1 <0>        -0.2765
      5 C3         -0.0010   -1.9785    0.8130 C.2       1 <0>         0.2252
      6 N3         -0.1301   -0.7271    1.3526 N.pl3     1 <0>        -0.4494
      7 C4          0.0150   -0.3528    2.7615 C.3       1 <0>         0.0356
      8 C5          0.8580    0.8835    3.0809 C.3       1 <0>        -0.1590
      9 C6          1.3979   -0.5129    3.3963 C.3       1 <0>        -0.1664
     10 C7          0.3134   -3.2241    1.5449 C.ar      1 <0>        -0.0693
     11 C8          0.1362   -3.2861    2.9285 C.ar      1 <0>        -0.0113
     12 C9          0.4301   -4.4480    3.6078 C.ar      1 <0>        -0.1922
     13 C10         0.9033   -5.5585    2.9168 C.ar      1 <0>         0.2945
     14 C11         1.0811   -5.4995    1.5390 C.ar      1 <0>        -0.1239
     15 C12         0.7825   -4.3421    0.8533 C.ar      1 <0>         0.0309
     16 N4          1.5858   -6.6831    0.8074 N.pl3     1 <0>         0.0430
     17 O1          2.3524   -6.5410   -0.1166 O.2       1 <0>        -0.1378
     18 O2          1.2315   -7.7920    1.1338 O.3       1 <0>        -0.1778
     19 N5          1.2004   -6.7334    3.6074 N.pl3     1 <0>        -0.8475
     20 H1          0.2900    2.1083    0.3478 H         1 <0>         0.0866
     21 H2         -1.2857    1.8952   -0.4522 H         1 <0>         0.0982
     22 H3         -1.1714    1.8207    1.3225 H         1 <0>         0.0815
     23 H4         -0.8533   -0.5466    3.3913 H         1 <0>         0.1434
     24 H5          1.3047    1.4183    2.2427 H         1 <0>         0.1084
     25 H6          0.5443    1.5034    3.9208 H         1 <0>         0.1206
     26 H7          1.4393   -0.8117    4.4437 H         1 <0>         0.1194
     27 H8          2.1997   -0.8968    2.7656 H         1 <0>         0.1065
     28 H9         -0.2305   -2.4239    3.4656 H         1 <0>         0.1441
     29 H10         0.2932   -4.4965    4.6780 H         1 <0>         0.1521
     30 H11         0.9160   -4.2985   -0.2175 H         1 <0>         0.1599
     31 H12         1.1362   -6.7567    4.5750 H         1 <0>         0.4118
     32 H13         1.4711   -7.5271    3.1200 H         1 <0>         0.4151
@<TRIPOS>BOND
     1    1    2 1
     2    1   20 1
     3    1   21 1
     4    1   22 1
     5    2    6 1
     6    2    3 2
     7    3    4 1
     8    4    5 2
     9    5    6 1
    10    5   10 1
    11    6    7 1
    12    7    9 1
    13    7    8 1
    14    7   23 1
    15    8    9 1
    16    8   24 1
    17    8   25 1
    18    9   26 1
    19    9   27 1
    20   10   15 ar
    21   10   11 ar
    22   11   12 ar
    23   11   28 1
    24   12   13 ar
    25   12   29 1
    26   13   14 ar
    27   13   19 1
    28   14   15 ar
    29   14   16 1
    30   15   30 1
    31   16   17 2
    32   16   18 1
    33   19   31 1
    34   19   32 1
