@<TRIPOS>MOLECULE
ZINC15518122
   62    65     0     0     0
SMALL
USER_CHARGES
N-(8-methyl-2,4-dioxo-1,3-diazaspiro[4.5]decan-3-yl)-2-[methyl-[(1R)-1-[4-(1,2,4-triazol-1-yl)phenyl]ethyl]amino]acetamide
@<TRIPOS>ATOM
      1 C1          8.2501   11.6424   -5.9933 C.3       1 <0>        -0.1510
      2 C2          6.8991   11.0998   -5.5230 C.3       1 <0>        -0.0982
      3 C3          6.9412    9.5704   -5.5079 C.3       1 <0>        -0.1133
      4 C4          5.5852    9.0283   -5.0487 C.3       1 <0>        -0.1157
      5 C5          5.2684    9.5584   -3.6547 C.3       1 <0>         0.1413
      6 C6          5.2475   11.0830   -3.6484 C.3       1 <0>        -0.1174
      7 C7          6.6049   11.6166   -4.1132 C.3       1 <0>        -0.1138
      8 C8          3.9446    9.0116   -3.1716 C.2       1 <0>         0.5347
      9 O1          2.8546    9.1758   -3.6764 O.2       1 <0>        -0.4376
     10 N1          4.2316    8.3018   -2.0608 N.am      1 <0>        -0.3806
     11 C9          5.5403    8.3325   -1.7807 C.2       1 <0>         0.7083
     12 O2          6.0404    7.7711   -0.8258 O.2       1 <0>        -0.5249
     13 N2          6.2409    9.0525   -2.6777 N.am      1 <0>        -0.6992
     14 N3          3.2776    7.6219   -1.2924 N.am      1 <0>        -0.4821
     15 C10         3.1875    6.2791   -1.3638 C.2       1 <0>         0.5109
     16 O3          3.9323    5.6592   -2.0932 O.2       1 <0>        -0.5000
     17 C11         2.1614    5.5477   -0.5373 C.3       1 <0>        -0.0169
     18 C12         3.5470    3.5756   -0.3063 C.3       1 <0>        -0.0587
     19 C13         1.1362    3.3815   -0.1924 C.3       1 <0>         0.0854
     20 H1          0.2021    3.8647   -0.4787 H         1 <0>         0.1509
     21 C14         1.2721    3.3966    1.3315 C.3       1 <0>        -0.1862
     22 C15         1.1353    1.9564   -0.6825 C.ar      1 <0>        -0.1508
     23 C16         0.7500    0.9350    0.1664 C.ar      1 <0>        -0.0613
     24 C17         0.7482   -0.3721   -0.2799 C.ar      1 <0>        -0.1037
     25 C18         1.1336   -0.6600   -1.5823 C.ar      1 <0>         0.1902
     26 C19         1.5199    0.3676   -2.4322 C.ar      1 <0>        -0.1236
     27 C20         1.5196    1.6727   -1.9801 C.ar      1 <0>        -0.0940
     28 N4          1.1332   -1.9858   -2.0380 N.pl3     1 <0>        -0.3494
     29 C21         1.4739   -2.4173   -3.2680 C.2       1 <0>         0.2686
     30 N5          1.3423   -3.7189   -3.2915 N.2       1 <0>        -0.5235
     31 C22         0.9147   -4.1518   -2.1060 C.2       1 <0>         0.2254
     32 N6          0.7718   -3.1281   -1.3052 N.2       1 <0>        -0.3117
     33 H2          8.4595   11.2747   -6.9979 H         1 <0>         0.0594
     34 H3          8.2203   12.7319   -6.0041 H         1 <0>         0.0599
     35 H4          9.0331   11.3070   -5.3132 H         1 <0>         0.0563
     36 H5          6.1163   11.4349   -6.2034 H         1 <0>         0.0792
     37 H6          7.7182    9.2349   -4.8212 H         1 <0>         0.0671
     38 H7          7.1588    9.2029   -6.5108 H         1 <0>         0.0813
     39 H8          5.6193    7.9391   -5.0238 H         1 <0>         0.0775
     40 H9          4.8107    9.3511   -5.7445 H         1 <0>         0.0955
     41 H10         4.4678   11.4381   -4.3222 H         1 <0>         0.0966
     42 H11         5.0439   11.4390   -2.6385 H         1 <0>         0.0790
     43 H12         7.3830   11.2745   -3.4308 H         1 <0>         0.0674
     44 H13         6.5833   12.7064   -4.1227 H         1 <0>         0.0822
     45 H14         7.1981    9.2094   -2.6763 H         1 <0>         0.4493
     46 H15         2.6819    8.1177   -0.7091 H         1 <0>         0.4375
     47 H16         1.1636    5.8933   -0.8078 H         1 <0>         0.1702
     48 H17         2.3396    5.7439    0.5200 H         1 <0>         0.1729
     49 H18         3.5737    2.4960   -0.4540 H         1 <0>         0.1272
     50 H19         4.3642    4.0383   -0.8596 H         1 <0>         0.1371
     51 H20         3.6539    3.7999    0.7550 H         1 <0>         0.1279
     52 H21         1.2728    4.4274    1.6860 H         1 <0>         0.0868
     53 H22         0.4342    2.8599    1.7764 H         1 <0>         0.1126
     54 H23         2.2062    2.9133    1.6178 H         1 <0>         0.0899
     55 H24         0.4460    1.1601    1.1780 H         1 <0>         0.1493
     56 H25         0.4475   -1.1694    0.3836 H         1 <0>         0.1526
     57 H26         1.8205    0.1466   -3.4457 H         1 <0>         0.1458
     58 H27         1.8197    2.4726   -2.6409 H         1 <0>         0.1302
     59 H28         1.8001   -1.7975   -4.0901 H         1 <0>         0.2262
     60 H29         0.7181   -5.1820   -1.8481 H         1 <0>         0.2309
     61 N7          2.2645    4.1007   -0.8203 N.4       1 <0>        -0.3827
     62 H30         2.2281    3.9562   -1.8362 H         1 <0>         0.4327
@<TRIPOS>BOND
     1    1    2 1
     2    1   33 1
     3    1   34 1
     4    1   35 1
     5    2    7 1
     6    2    3 1
     7    2   36 1
     8    3    4 1
     9    3   37 1
    10    3   38 1
    11    4    5 1
    12    4   39 1
    13    4   40 1
    14    5   13 1
    15    5    6 1
    16    5    8 1
    17    6    7 1
    18    6   41 1
    19    6   42 1
    20    7   43 1
    21    7   44 1
    22    8    9 2
    23    8   10 am
    24   10   11 am
    25   10   14 1
    26   11   12 2
    27   11   13 am
    28   13   45 1
    29   14   15 am
    30   14   46 1
    31   15   16 2
    32   15   17 1
    33   17   47 1
    34   17   48 1
    35   17   61 1
    36   18   49 1
    37   18   50 1
    38   18   51 1
    39   18   61 1
    40   19   20 1
    41   19   21 1
    42   19   22 1
    43   19   61 1
    44   21   52 1
    45   21   53 1
    46   21   54 1
    47   22   27 ar
    48   22   23 ar
    49   23   24 ar
    50   23   55 1
    51   24   25 ar
    52   24   56 1
    53   25   26 ar
    54   25   28 1
    55   26   27 ar
    56   26   57 1
    57   27   58 1
    58   28   32 1
    59   28   29 1
    60   29   30 2
    61   29   59 1
    62   30   31 1
    63   31   32 2
    64   31   60 1
    65   61   62 1
