@<TRIPOS>MOLECULE
ZINC40590474
   36    36     0     0     0
SMALL
USER_CHARGES

@<TRIPOS>ATOM
      1 C1         -0.0186    1.5216    0.0104 C.3       1 <0>        -0.1220
      2 C2          1.4130    2.0638   -0.0003 C.3       1 <0>        -0.5993
      3 S1          2.2230    1.5542   -1.5453 S.o2      1 <0>         2.4127
      4 O1          3.6158    1.8121   -1.4316 O.2       1 <0>        -0.9428
      5 O2          1.5025    2.1085   -2.6374 O.2       1 <0>        -0.9352
      6 C3          1.9654   -0.2447   -1.5323 C.3       1 <0>        -0.5958
      7 C4          0.4723   -0.5298   -1.3510 C.3       1 <0>        -0.1267
      8 C5          0.0021   -0.0041    0.0020 C.3       1 <0>         0.1468
      9 N1         -1.3473   -0.5064    0.2724 N.am      1 <0>        -0.7408
     10 C6         -1.5155   -1.7325    0.8061 C.2       1 <0>         0.7080
     11 O3         -0.5474   -2.4217    1.0631 O.2       1 <0>        -0.5897
     12 N2         -2.7569   -2.1947    1.0548 N.am      1 <0>        -0.7288
     13 C7         -2.9398   -3.5274    1.6349 C.3       1 <0>         0.1195
     14 C8         -4.4112   -3.8007    1.8118 C.2       1 <0>         0.4970
     15 O4         -5.2268   -2.9646    1.4854 O.2       1 <0>        -0.5608
     16 N3         -4.8208   -4.9744    2.3326 N.am      1 <0>        -0.6902
     17 C9         -6.2512   -5.2400    2.5046 C.3       1 <0>         0.0501
     18 C10        -6.4393   -6.6110    3.1013 C.2       1 <0>         0.4898
     19 O5         -5.4685   -7.3021    3.3591 O.co2     1 <0>        -0.6903
     20 O6         -7.5623   -7.0291    3.3263 O.co2     1 <0>        -0.6866
     21 H1         -0.5314    1.8716    0.9063 H         1 <0>         0.0979
     22 H2         -0.5484    1.8812   -0.8717 H         1 <0>         0.0928
     23 H3          1.3917    3.1519    0.0591 H         1 <0>         0.1407
     24 H4          1.9625    1.6606    0.8503 H         1 <0>         0.1377
     25 H5          2.3061   -0.6691   -2.4766 H         1 <0>         0.1390
     26 H6          2.5244   -0.6876   -0.7080 H         1 <0>         0.1377
     27 H7         -0.0891   -0.0380   -2.1453 H         1 <0>         0.0873
     28 H8          0.3006   -1.6051   -1.4009 H         1 <0>         0.0976
     29 H9          0.6788   -0.3582    0.7797 H         1 <0>         0.1009
     30 H10        -2.1196    0.0434    0.0673 H         1 <0>         0.4013
     31 H11        -3.5292   -1.6448    0.8497 H         1 <0>         0.4086
     32 H12        -2.5087   -4.2755    0.9696 H         1 <0>         0.0979
     33 H13        -2.4427   -3.5733    2.6039 H         1 <0>         0.0979
     34 H14        -4.1684   -5.6431    2.5937 H         1 <0>         0.4117
     35 H15        -6.6823   -4.4919    3.1699 H         1 <0>         0.0681
     36 H16        -6.7483   -5.1942    1.5356 H         1 <0>         0.0681
@<TRIPOS>BOND
     1    1    8 1
     2    1    2 1
     3    1   21 1
     4    1   22 1
     5    2    3 1
     6    2   23 1
     7    2   24 1
     8    3    4 2
     9    3    5 2
    10    3    6 1
    11    6    7 1
    12    6   25 1
    13    6   26 1
    14    7    8 1
    15    7   27 1
    16    7   28 1
    17    8    9 1
    18    8   29 1
    19    9   10 am
    20    9   30 1
    21   10   11 2
    22   10   12 am
    23   12   13 1
    24   12   31 1
    25   13   14 1
    26   13   32 1
    27   13   33 1
    28   14   15 2
    29   14   16 am
    30   16   17 1
    31   16   34 1
    32   17   18 1
    33   17   35 1
    34   17   36 1
    35   18   19 2
    36   18   20 1
