@<TRIPOS>MOLECULE
ZINC63228786
   43    46     0     0     0
SMALL
USER_CHARGES

@<TRIPOS>ATOM
      1 C1         -0.0167    1.3781    0.0096 C.ar      1 <0>        -0.1075
      2 C2          1.1709    2.0855    0.0021 C.ar      1 <0>        -0.1168
      3 C3          2.3773    1.4107   -0.0130 C.ar      1 <0>        -0.0978
      4 C4          2.3960    0.0285   -0.0201 C.ar      1 <0>        -0.0889
      5 C5          1.2084   -0.6789   -0.0117 C.ar      1 <0>        -0.1022
      6 C6          0.0021   -0.0041    0.0020 C.ar      1 <0>        -0.1198
      7 C7          3.7112   -0.7071   -0.0376 C.3       1 <0>        -0.0379
      8 S1          4.2568   -1.0108    1.6656 S.3       1 <0>        -0.1401
      9 C8          5.8308   -1.8914    1.4717 C.3       1 <0>         0.2082
     10 H1          6.2653   -2.1193    2.4451 H         1 <0>         0.0988
     11 N1          6.7786   -1.0971    0.6468 N.3       1 <0>        -0.4742
     12 N2          7.6865   -2.1084    0.0931 N.3       1 <0>        -0.5041
     13 C9          6.9461   -3.3862    0.1424 C.3       1 <0>         0.2232
     14 H2          7.4723   -4.0972    0.7793 H         1 <0>         0.0766
     15 O1          5.6482   -3.0991    0.6990 O.3       1 <0>        -0.3546
     16 C10         6.7978   -3.9591   -1.2686 C.3       1 <0>        -0.0756
     17 C11         6.1510   -5.3182   -1.1934 C.2       1 <0>         0.0670
     18 C12         4.8363   -5.6021   -1.3358 C.ar      1 <0>        -0.1591
     19 C13         3.6598   -4.7626   -1.5921 C.ar      1 <0>         0.0020
     20 C14         2.4441   -5.3477   -1.6848 C.ar      1 <0>        -0.1570
     21 C15         2.2797   -6.7324   -1.5420 C.ar      1 <0>         0.0586
     22 C16         3.3124   -7.5687   -1.3052 C.ar      1 <0>        -0.2137
     23 C17         4.6360   -7.0615   -1.1894 C.ar      1 <0>         0.3278
     24 N3          5.7824   -7.6567   -0.9653 N.pl3     1 <0>        -0.5887
     25 C18         6.8415   -6.6415   -0.9501 C.3       1 <0>         0.0621
     26 H3         -0.9591    1.9053    0.0259 H         1 <0>         0.1267
     27 H4          1.1563    3.1654    0.0076 H         1 <0>         0.1279
     28 H5          3.3051    1.9634   -0.0196 H         1 <0>         0.1262
     29 H6          1.2231   -1.7588   -0.0176 H         1 <0>         0.1206
     30 H7         -0.9258   -0.5567    0.0082 H         1 <0>         0.1259
     31 H8          3.5884   -1.6586   -0.5549 H         1 <0>         0.0884
     32 H9          4.4573   -0.1052   -0.5563 H         1 <0>         0.1047
     33 H10         7.2816   -0.4314    1.2141 H         1 <0>         0.3652
     34 H11         8.5383   -2.1631    0.6312 H         1 <0>         0.3414
     35 H12         6.1762   -3.2935   -1.8675 H         1 <0>         0.1232
     36 H13         7.7815   -4.0498   -1.7291 H         1 <0>         0.1307
     37 H14         3.7635   -3.6935   -1.7048 H         1 <0>         0.1573
     38 H15         1.5771   -4.7319   -1.8734 H         1 <0>         0.1570
     39 H16         1.2859   -7.1471   -1.6246 H         1 <0>         0.1605
     40 H17         3.1325   -8.6287   -1.2027 H         1 <0>         0.1598
     41 H18         7.5652   -6.8387   -1.7410 H         1 <0>         0.1743
     42 H19         7.3376   -6.6336    0.0204 H         1 <0>         0.1690
     43 H20         5.9096   -8.6095   -0.8352 H         1 <0>         0.4552
@<TRIPOS>BOND
     1    1    6 ar
     2    1    2 ar
     3    1   26 1
     4    2    3 ar
     5    2   27 1
     6    3    4 ar
     7    3   28 1
     8    4    5 ar
     9    4    7 1
    10    5    6 ar
    11    5   29 1
    12    6   30 1
    13    7    8 1
    14    7   31 1
    15    7   32 1
    16    8    9 1
    17    9   10 1
    18    9   15 1
    19    9   11 1
    20   11   12 1
    21   11   33 1
    22   12   13 1
    23   12   34 1
    24   13   14 1
    25   13   15 1
    26   13   16 1
    27   16   17 1
    28   16   35 1
    29   16   36 1
    30   17   25 1
    31   17   18 2
    32   18   23 ar
    33   18   19 ar
    34   19   20 ar
    35   19   37 1
    36   20   21 ar
    37   20   38 1
    38   21   22 ar
    39   21   39 1
    40   22   23 ar
    41   22   40 1
    42   23   24 2
    43   24   25 1
    44   24   43 1
    45   25   41 1
    46   25   42 1
