@<TRIPOS>MOLECULE
ZINC18197094
   55    59     0     0     0
SMALL
USER_CHARGES
(4R,7S)-7-(3,4-dimethoxyphenyl)-3-hydroxy-4-(4-hydroxyphenyl)-1,4,6,7,8,9-hexahydropyrazolo[5,4-b]quinolin-5-one
@<TRIPOS>ATOM
      1 C1         -1.1873    7.6068    8.9692 C.3       1 <0>         0.0254
      2 O1         -2.4263    7.4379    8.2775 O.3       1 <0>        -0.3063
      3 C2         -2.3959    6.7201    7.1228 C.ar      1 <0>         0.1015
      4 C3         -1.1999    6.1899    6.6661 C.ar      1 <0>        -0.1693
      5 C4         -1.1718    5.4554    5.4953 C.ar      1 <0>        -0.1086
      6 C5         -2.3332    5.2575    4.7718 C.ar      1 <0>        -0.0804
      7 C6         -3.5297    5.7838    5.2218 C.ar      1 <0>        -0.1629
      8 C7         -3.5658    6.5162    6.3975 C.ar      1 <0>         0.1024
      9 O2         -4.7421    7.0342    6.8419 O.3       1 <0>        -0.3056
     10 C8         -5.9026    6.7844    6.0464 C.3       1 <0>         0.0252
     11 C9         -2.2958    4.4613    3.4929 C.3       1 <0>        -0.0304
     12 H1         -3.2986    4.3975    3.0705 H         1 <0>         0.0922
     13 C10        -1.3569    5.1369    2.4922 C.3       1 <0>        -0.0916
     14 C11        -1.2863    4.3163    1.2245 C.2       1 <0>         0.2340
     15 C12        -1.4196    2.9730    1.2622 C.2       1 <0>        -0.2723
     16 C13        -1.3326    2.1128    0.0199 C.3       1 <0>         0.1102
     17 H2         -2.1502    1.3920    0.0198 H         1 <0>         0.0903
     18 C14        -1.4306    2.9799   -1.2030 C.2       1 <0>        -0.2673
     19 C15        -1.3077    4.3422   -1.1498 C.2       1 <0>         0.3412
     20 N1         -1.4397    4.8167   -2.4029 N.pl3     1 <0>        -0.4659
     21 H3         -1.3941    5.7772   -2.6773 H         1 <0>         0.4502
     22 N2         -1.6525    3.7233   -3.2541 N.2       1 <0>        -0.3391
     23 C16        -1.6465    2.6247   -2.5312 C.2       1 <0>         0.3064
     24 O3         -1.8207    1.3604   -3.0004 O.3       1 <0>        -0.4302
     25 N3         -1.0864    5.0025    0.0528 N.pl3     1 <0>        -0.6293
     26 C17        -0.0167    1.3784    0.0096 C.ar      1 <0>        -0.0670
     27 C18         1.1698    2.0883    0.0021 C.ar      1 <0>        -0.0911
     28 C19         2.3774    1.4175   -0.0131 C.ar      1 <0>        -0.1497
     29 C20         2.3989    0.0304   -0.0212 C.ar      1 <0>         0.0979
     30 C21         1.2070   -0.6796   -0.0136 C.ar      1 <0>        -0.1446
     31 C22         0.0021   -0.0041    0.0020 C.ar      1 <0>        -0.0774
     32 O4          3.5855   -0.6319   -0.0371 O.3       1 <0>        -0.5012
     33 C23        -1.6500    2.3047    2.4782 C.2       1 <0>         0.4021
     34 O5         -1.7598    1.0943    2.4788 O.2       1 <0>        -0.4599
     35 C24        -1.7635    3.0525    3.7770 C.3       1 <0>        -0.1520
     36 H4         -1.3521    8.1966    9.8710 H         1 <0>         0.1017
     37 H5         -0.7873    6.6302    9.2419 H         1 <0>         0.0561
     38 H6         -0.4775    8.1225    8.3225 H         1 <0>         0.0554
     39 H7         -0.2905    6.3468    7.2272 H         1 <0>         0.1371
     40 H8         -0.2399    5.0386    5.1429 H         1 <0>         0.1286
     41 H9         -4.4363    5.6237    4.6572 H         1 <0>         0.1367
     42 H10        -6.7701    7.2517    6.5124 H         1 <0>         0.1019
     43 H11        -5.7567    7.2015    5.0499 H         1 <0>         0.0549
     44 H12        -6.0663    5.7095    5.9699 H         1 <0>         0.0563
     45 H13        -0.3609    5.2182    2.9275 H         1 <0>         0.1039
     46 H14        -1.7330    6.1330    2.2589 H         1 <0>         0.0943
     47 H15        -1.9565    1.3882   -3.9907 H         1 <0>         0.4057
     48 H16        -0.7972    5.9283    0.0639 H         1 <0>         0.4200
     49 H17         1.1525    3.1682    0.0077 H         1 <0>         0.1129
     50 H18         3.3039    1.9724   -0.0194 H         1 <0>         0.1227
     51 H19         1.2211   -1.7595   -0.0203 H         1 <0>         0.1266
     52 H20        -0.9260   -0.5563    0.0079 H         1 <0>         0.1266
     53 H21         3.9201   -0.8182   -0.9250 H         1 <0>         0.3880
     54 H22        -0.8646    3.1169    4.2104 H         1 <0>         0.0937
     55 H23        -2.4507    2.5299    4.4424 H         1 <0>         0.1003
@<TRIPOS>BOND
     1    1    2 1
     2    1   36 1
     3    1   37 1
     4    1   38 1
     5    2    3 1
     6    3    8 ar
     7    3    4 ar
     8    4    5 ar
     9    4   39 1
    10    5    6 ar
    11    5   40 1
    12    6    7 ar
    13    6   11 1
    14    7    8 ar
    15    7   41 1
    16    8    9 1
    17    9   10 1
    18   10   42 1
    19   10   43 1
    20   10   44 1
    21   11   12 1
    22   11   35 1
    23   11   13 1
    24   13   14 1
    25   13   45 1
    26   13   46 1
    27   14   25 1
    28   14   15 2
    29   15   16 1
    30   15   33 1
    31   16   17 1
    32   16   18 1
    33   16   26 1
    34   18   23 1
    35   18   19 2
    36   19   20 1
    37   19   25 1
    38   20   21 1
    39   20   22 1
    40   22   23 2
    41   23   24 1
    42   24   47 1
    43   25   48 1
    44   26   31 ar
    45   26   27 ar
    46   27   28 ar
    47   27   49 1
    48   28   29 ar
    49   28   50 1
    50   29   30 ar
    51   29   32 1
    52   30   31 ar
    53   30   51 1
    54   31   52 1
    55   32   53 1
    56   33   34 2
    57   33   35 1
    58   35   54 1
    59   35   55 1
