@<TRIPOS>MOLECULE
ZINC10021572
   55    59     0     0     0
SMALL
USER_CHARGES
4-amino-3-[[3-(2-furyl)-7-(2-furylmethylene)-3a,4,5,6-tetrahydro-3H-indazol-2-yl]carbonylmethylsulfanyl]-6-methyl-1,2,4-triazin-5-one
@<TRIPOS>ATOM
      1 C1          0.1158    5.9331    0.0310 C.3       1 <0>        -0.0812
      2 C2          0.0474    4.4277    0.0245 C.2       1 <0>         0.0099
      3 C3         -1.2026    3.7718    0.0329 C.2       1 <0>         0.4868
      4 O1         -2.2435    4.4070    0.0454 O.2       1 <0>        -0.5075
      5 N1         -1.2138    2.4189    0.0210 N.am      1 <0>        -0.3377
      6 C4         -0.0218    1.7577    0.0117 C.2       1 <0>         0.2826
      7 N2          1.1170    2.4306    0.0044 N.2       1 <0>        -0.3260
      8 N3          1.1494    3.7150    0.0106 N.2       1 <0>        -0.1754
      9 S1          0.0021   -0.0041    0.0020 S.3       1 <0>         0.1245
     10 C5          1.7886   -0.2941   -0.0166 C.3       1 <0>        -0.1430
     11 C6          2.0567   -1.7770   -0.0271 C.2       1 <0>         0.5750
     12 O2          1.1307   -2.5609   -0.0225 O.2       1 <0>        -0.4927
     13 N4          3.3251   -2.2324   -0.0417 N.am      1 <0>        -0.4666
     14 C7          3.7436   -3.6527   -0.0533 C.3       1 <0>         0.2025
     15 H1          3.7396   -4.0527   -1.0672 H         1 <0>         0.1240
     16 C8          5.1774   -3.5583    0.4963 C.3       1 <0>        -0.1003
     17 H2          5.2145   -3.7474    1.5691 H         1 <0>         0.1194
     18 C9          6.1423   -4.4543   -0.2827 C.3       1 <0>        -0.1059
     19 C10         7.5607   -4.1643    0.2036 C.3       1 <0>        -0.1187
     20 C11         8.0105   -2.7433   -0.0696 C.3       1 <0>        -0.0755
     21 C12         6.9110   -1.7273   -0.0031 C.2       1 <0>        -0.0652
     22 C13         7.2121   -0.4105   -0.0954 C.2       1 <0>        -0.0193
     23 C14         8.6022    0.0118   -0.2584 C.2       1 <0>        -0.0035
     24 C15         9.0432    1.3019   -0.3639 C.2       1 <0>        -0.1695
     25 C16        10.4407    1.2408   -0.5043 C.2       1 <0>        -0.2148
     26 C17        10.7861   -0.0636   -0.4787 C.2       1 <0>        -0.0283
     27 O3          9.6752   -0.8023   -0.3252 O.3       1 <0>        -0.1643
     28 C18         5.5641   -2.1249    0.1543 C.2       1 <0>         0.1558
     29 N5          4.4845   -1.4479   -0.0547 N.2       1 <0>        -0.2345
     30 C19         2.8708   -4.4802    0.8547 C.2       1 <0>        -0.0165
     31 C20         2.4391   -5.7298    0.6066 C.2       1 <0>        -0.1823
     32 C21         1.6545   -6.1200    1.7161 C.2       1 <0>        -0.2116
     33 C22         1.6536   -5.0855    2.5759 C.2       1 <0>        -0.0263
     34 O4          2.3967   -4.0972    2.0515 O.3       1 <0>        -0.1673
     35 N6         -2.3938    1.7307    0.0233 N.3       1 <0>        -0.5949
     36 H3          1.1589    6.2494    0.0225 H         1 <0>         0.0903
     37 H4         -0.3894    6.3236   -0.8524 H         1 <0>         0.0853
     38 H5         -0.3724    6.3152    0.9275 H         1 <0>         0.0863
     39 H6          2.2211    0.1597   -0.9083 H         1 <0>         0.1403
     40 H7          2.2381    0.1501    0.8715 H         1 <0>         0.1384
     41 H8          5.8986   -5.5013   -0.1025 H         1 <0>         0.0819
     42 H9          6.0672   -4.2368   -1.3482 H         1 <0>         0.0756
     43 H10         8.2475   -4.8500   -0.2926 H         1 <0>         0.0772
     44 H11         7.6036   -4.3441    1.2778 H         1 <0>         0.0670
     45 H12         8.4570   -2.7062   -1.0633 H         1 <0>         0.0844
     46 H13         8.7746   -2.4753    0.6601 H         1 <0>         0.0901
     47 H14         6.4253    0.3279   -0.0487 H         1 <0>         0.1581
     48 H15         8.4357    2.1946   -0.3435 H         1 <0>         0.1543
     49 H16        11.1117    2.0801   -0.6127 H         1 <0>         0.1519
     50 H17        11.7912   -0.4496   -0.5636 H         1 <0>         0.2057
     51 H18         2.6507   -6.3213   -0.2719 H         1 <0>         0.1489
     52 H19         1.1525   -7.0671    1.8482 H         1 <0>         0.1506
     53 H20         1.1459   -5.0565    3.5287 H         1 <0>         0.2033
     54 H21        -3.1807    2.3622    0.0304 H         1 <0>         0.3915
     55 H22        -2.4449    1.0980   -0.7610 H         1 <0>         0.3672
@<TRIPOS>BOND
     1    1    2 1
     2    1   36 1
     3    1   37 1
     4    1   38 1
     5    2    8 2
     6    2    3 1
     7    3    4 2
     8    3    5 am
     9    5    6 1
    10    5   35 1
    11    6    7 2
    12    6    9 1
    13    7    8 1
    14    9   10 1
    15   10   11 1
    16   10   39 1
    17   10   40 1
    18   11   12 2
    19   11   13 am
    20   13   29 1
    21   13   14 1
    22   14   15 1
    23   14   16 1
    24   14   30 1
    25   16   17 1
    26   16   28 1
    27   16   18 1
    28   18   19 1
    29   18   41 1
    30   18   42 1
    31   19   20 1
    32   19   43 1
    33   19   44 1
    34   20   21 1
    35   20   45 1
    36   20   46 1
    37   21   22 2
    38   21   28 1
    39   22   23 1
    40   22   47 1
    41   23   27 1
    42   23   24 2
    43   24   25 1
    44   24   48 1
    45   25   26 2
    46   25   49 1
    47   26   27 1
    48   26   50 1
    49   28   29 2
    50   30   34 1
    51   30   31 2
    52   31   32 1
    53   31   51 1
    54   32   33 2
    55   32   52 1
    56   33   34 1
    57   33   53 1
    58   35   54 1
    59   35   55 1
