@<TRIPOS>MOLECULE
ZINC09227621
   30    31     0     0     0
SMALL
USER_CHARGES
2-[[5-[2-[(5-amino-1,3,4-thiadiazol-2-yl)sulfanyl]acetyl]amino-1,3,4-thiadiazol-2-yl]sulfanyl]acetamide
@<TRIPOS>ATOM
      1 C1         -0.3654    4.3798    0.0281 C.3       1 <0>        -0.1647
      2 C2         -0.3168    5.8860    0.0350 C.2       1 <0>         0.5407
      3 O1          0.7525    6.4583    0.0275 O.2       1 <0>        -0.5257
      4 N1         -1.4616    6.5971    0.0496 N.am      1 <0>        -0.8436
      5 S1          1.3244    3.7204    0.0086 S.3       1 <0>         0.1388
      6 C3          1.1000    1.9728    0.0022 C.2       1 <0>        -0.0032
      7 N2         -0.0150    1.2570    0.0090 N.2       1 <0>        -0.2609
      8 N3          0.0021   -0.0041    0.0020 N.2       1 <0>        -0.2673
      9 C4          1.1332   -0.6900   -0.0125 C.2       1 <0>         0.2775
     10 S2          2.3136    0.6564   -0.0165 S.3       1 <0>         0.0631
     11 N4          1.3453   -2.0665   -0.0215 N.am      1 <0>        -0.6053
     12 C5          0.2944   -2.9103   -0.0160 C.2       1 <0>         0.5340
     13 O2         -0.8361   -2.4710   -0.0033 O.2       1 <0>        -0.4489
     14 C6          0.5240   -4.3997   -0.0258 C.3       1 <0>        -0.1575
     15 S3         -1.0742   -5.2578   -0.0153 S.3       1 <0>         0.1364
     16 C7         -0.6410   -6.9657   -0.0281 C.2       1 <0>         0.0210
     17 N5          0.5536   -7.5251   -0.0417 N.2       1 <0>        -0.2750
     18 N6          0.6672   -8.8961   -0.0491 N.2       1 <0>        -0.3750
     19 C8         -0.4183   -9.6447   -0.0427 C.2       1 <0>         0.3530
     20 S4         -1.7019   -8.4028   -0.0183 S.3       1 <0>         0.0120
     21 N7         -0.5329  -11.0299   -0.0481 N.pl3     1 <0>        -0.7878
     22 H1         -0.8992    4.0376   -0.8585 H         1 <0>         0.1315
     23 H2         -0.8820    4.0288    0.9214 H         1 <0>         0.1315
     24 H3         -2.3168    6.1394    0.0556 H         1 <0>         0.4070
     25 H4         -1.4304    7.5666    0.0540 H         1 <0>         0.4109
     26 H5          2.2494   -2.4178   -0.0317 H         1 <0>         0.4340
     27 H6          1.0788   -4.6759   -0.9224 H         1 <0>         0.1380
     28 H7          1.0954   -4.6850    0.8574 H         1 <0>         0.1380
     29 H8          0.2642  -11.5825   -0.0583 H         1 <0>         0.4235
     30 H9         -1.4101  -11.4440   -0.0416 H         1 <0>         0.4242
@<TRIPOS>BOND
     1    1    2 1
     2    1    5 1
     3    1   22 1
     4    1   23 1
     5    2    3 2
     6    2    4 am
     7    4   24 1
     8    4   25 1
     9    5    6 1
    10    6   10 1
    11    6    7 2
    12    7    8 1
    13    8    9 2
    14    9   10 1
    15    9   11 1
    16   11   12 am
    17   11   26 1
    18   12   13 2
    19   12   14 1
    20   14   15 1
    21   14   27 1
    22   14   28 1
    23   15   16 1
    24   16   20 1
    25   16   17 2
    26   17   18 1
    27   18   19 2
    28   19   20 1
    29   19   21 1
    30   21   29 1
    31   21   30 1
