@<TRIPOS>MOLECULE
ZINC20744499
   46    49     0     0     0
SMALL
USER_CHARGES

@<TRIPOS>ATOM
      1 C1         -0.0196    1.7794    0.0346 C.3       1 <0>        -0.6493
      2 S1          0.0003   -0.0344    0.0105 S.o2      1 <0>         2.5059
      3 O1          0.8310   -0.5286    1.0521 O.2       1 <0>        -0.9310
      4 O2         -1.3176   -0.5360   -0.1648 O.2       1 <0>        -0.9302
      5 C2          0.8443   -0.4582   -1.4770 C.ar      1 <0>        -0.6690
      6 C3          0.1398   -0.6245   -2.6578 C.ar      1 <0>         0.0186
      7 C4          0.7806   -0.9557   -3.8289 C.ar      1 <0>        -0.1313
      8 C5          2.1709   -1.1338   -3.8561 C.ar      1 <0>         0.1741
      9 C6          2.8593   -0.9591   -2.6471 C.ar      1 <0>        -0.2128
     10 C7          2.2183   -0.6228   -1.4783 C.ar      1 <0>         0.0710
     11 S2          4.5475   -1.2649   -3.0969 S.3       1 <0>         0.2581
     12 C8          4.3260   -1.5890   -4.7312 C.2       1 <0>         0.3846
     13 N1          5.2532   -1.8979   -5.6352 N.2       1 <0>        -0.5927
     14 C9          4.8922   -2.2339   -6.8691 C.2       1 <0>         0.5173
     15 O3          3.7240   -2.1673   -7.2002 O.2       1 <0>        -0.5407
     16 C10         5.9306   -2.6973   -7.8581 C.3       1 <0>        -0.1322
     17 S3          5.1303   -3.0788   -9.4407 S.3       1 <0>        -0.0875
     18 C11         6.4975   -3.6143  -10.5059 C.3       1 <0>        -0.0860
     19 C12         5.9632   -3.9660  -11.8704 C.2       1 <0>         0.4089
     20 N2          4.6878   -3.8462  -12.0821 N.2       1 <0>        -0.4938
     21 C13         4.1355   -4.1438  -13.2848 C.ar      1 <0>         0.1527
     22 C14         2.7638   -4.0155  -13.5129 C.ar      1 <0>        -0.1042
     23 C15         2.2460   -4.3293  -14.7493 C.ar      1 <0>        -0.0722
     24 C16         3.0713   -4.7725  -15.7747 C.ar      1 <0>        -0.1346
     25 C17         4.4275   -4.9076  -15.5739 C.ar      1 <0>        -0.0419
     26 C18         4.9717   -4.5948  -14.3299 C.ar      1 <0>        -0.1977
     27 C19         6.4113   -4.7194  -14.0571 C.2       1 <0>         0.5541
     28 N3          6.8415   -4.3869  -12.8176 N.am      1 <0>        -0.6492
     29 O4          7.1865   -5.1023  -14.9139 O.2       1 <0>        -0.5069
     30 N4          2.9880   -1.4640   -4.9207 N.pl3     1 <0>        -0.6335
     31 H1          2.6062   -1.6058   -5.8010 H         1 <0>         0.4351
     32 H2          1.0040    2.1540    0.0310 H         1 <0>         0.1335
     33 H3         -0.5447    2.1487   -0.8462 H         1 <0>         0.1333
     34 H4         -0.5299    2.1252    0.9335 H         1 <0>         0.1366
     35 H5         -0.9320   -0.4919   -2.6590 H         1 <0>         0.1593
     36 H6          0.2075   -1.0802   -4.7357 H         1 <0>         0.1469
     37 H7          2.7825   -0.4922   -0.5667 H         1 <0>         0.1633
     38 H8          6.6694   -1.9095   -8.0051 H         1 <0>         0.1173
     39 H9          6.4235   -3.5910   -7.4755 H         1 <0>         0.1169
     40 H10         7.2245   -2.8073  -10.5973 H         1 <0>         0.1180
     41 H11         6.9786   -4.4887  -10.0676 H         1 <0>         0.1180
     42 H12         2.1122   -3.6722  -12.7230 H         1 <0>         0.1424
     43 H13         1.1849   -4.2299  -14.9239 H         1 <0>         0.1367
     44 H14         2.6461   -5.0137  -16.7377 H         1 <0>         0.1356
     45 H15         5.0643   -5.2527  -16.3750 H         1 <0>         0.1392
     46 H16         7.7850   -4.4531  -12.6026 H         1 <0>         0.4193
@<TRIPOS>BOND
     1    1    2 1
     2    1   32 1
     3    1   33 1
     4    1   34 1
     5    2    3 2
     6    2    4 2
     7    2    5 1
     8    5   10 ar
     9    5    6 ar
    10    6    7 ar
    11    6   35 1
    12    7    8 ar
    13    7   36 1
    14    8   30 1
    15    8    9 ar
    16    9   10 ar
    17    9   11 1
    18   10   37 1
    19   11   12 1
    20   12   13 2
    21   12   30 1
    22   13   14 1
    23   14   15 2
    24   14   16 1
    25   16   17 1
    26   16   38 1
    27   16   39 1
    28   17   18 1
    29   18   40 1
    30   18   41 1
    31   18   19 1
    32   19   20 2
    33   19   28 1
    34   20   21 1
    35   21   26 ar
    36   21   22 ar
    37   22   23 ar
    38   22   42 1
    39   23   24 ar
    40   23   43 1
    41   24   25 ar
    42   24   44 1
    43   25   26 ar
    44   25   45 1
    45   26   27 1
    46   27   29 2
    47   27   28 am
    48   28   46 1
    49   30   31 1
