@<TRIPOS>MOLECULE
ZINC11036664
   53    55     0     0     0
SMALL
USER_CHARGES

@<TRIPOS>ATOM
      1 C1          3.3811    5.9672   -1.5049 C.ar      1 <0>        -0.1537
      2 C2          3.1498    4.7618   -0.8679 C.ar      1 <0>        -0.0258
      3 C3          4.1511    3.8129   -0.7979 C.ar      1 <0>        -0.2164
      4 C4          5.3898    4.0699   -1.3679 C.ar      1 <0>         0.1936
      5 C5          5.6192    5.2796   -2.0068 C.ar      1 <0>        -0.0815
      6 C6          4.6144    6.2256   -2.0736 C.ar      1 <0>        -0.0180
      7 N1          6.9394    5.5571   -2.6154 N.pl3     1 <0>         0.0345
      8 O1          7.1388    6.6117   -3.1721 O.2       1 <0>        -0.1776
      9 O2          7.8185    4.7293   -2.5559 O.3       1 <0>        -0.1203
     10 O3          6.3767    3.1382   -1.3001 O.3       1 <0>        -0.2559
     11 C7          6.0697    1.9158   -0.6266 C.3       1 <0>         0.0365
     12 C8          7.2754    1.0120   -0.6514 C.2       1 <0>         0.5103
     13 O4          8.2971    1.3787   -1.1926 O.2       1 <0>        -0.4722
     14 N2          7.2185   -0.2036   -0.0722 N.am      1 <0>        -0.6697
     15 C9          8.3035   -1.0807   -0.1784 C.ar      1 <0>         0.1215
     16 C10         8.0850   -2.4482   -0.2849 C.ar      1 <0>        -0.0851
     17 C11         9.1579   -3.3112   -0.3896 C.ar      1 <0>        -0.1201
     18 C12        10.4490   -2.8153   -0.3879 C.ar      1 <0>        -0.0287
     19 C13        10.6698   -1.4545   -0.2816 C.ar      1 <0>        -0.6236
     20 C14         9.6006   -0.5854   -0.1833 C.ar      1 <0>        -0.0183
     21 S1         12.3165   -0.8277   -0.2794 S.o2      1 <0>         2.6423
     22 O5         12.2713    0.4305    0.3795 O.2       1 <0>        -0.9763
     23 O6         13.1541   -1.8882    0.1601 O.2       1 <0>        -0.9725
     24 N3         12.7264   -0.5227   -1.8546 N.2       1 <0>        -0.9916
     25 C15        13.8964   -0.0504   -2.1385 C.2       1 <0>         0.5694
     26 C16        14.9036    0.2208   -1.0235 C.3       1 <0>        -0.1681
     27 C17        16.0144   -0.7977   -1.1638 C.3       1 <0>        -0.1194
     28 C18        17.1397   -0.3472   -2.0972 C.3       1 <0>        -0.1199
     29 C19        16.6282    0.3220   -3.3734 C.3       1 <0>        -0.1515
     30 C20        15.4440   -0.3918   -3.9882 C.3       1 <0>         0.1285
     31 N4         14.2245    0.1932   -3.3920 N.pl3     1 <0>        -0.7275
     32 H1          2.5956    6.7061   -1.5621 H         1 <0>         0.1507
     33 H2          2.1855    4.5622   -0.4244 H         1 <0>         0.1478
     34 H3          3.9702    2.8720   -0.2997 H         1 <0>         0.1513
     35 H4          4.7926    7.1678   -2.5706 H         1 <0>         0.1614
     36 H5          5.7967    2.1290    0.4069 H         1 <0>         0.1057
     37 H6          5.2365    1.4238   -1.1284 H         1 <0>         0.1058
     38 H7          6.4253   -0.4704    0.4183 H         1 <0>         0.4149
     39 H8          7.0771   -2.8362   -0.2856 H         1 <0>         0.1373
     40 H9          8.9887   -4.3747   -0.4724 H         1 <0>         0.1414
     41 H10        11.2864   -3.4923   -0.4696 H         1 <0>         0.1437
     42 H11         9.7736    0.4778   -0.1055 H         1 <0>         0.1574
     43 H12        15.3084    1.2277   -1.1260 H         1 <0>         0.1195
     44 H13        14.4205    0.1114   -0.0525 H         1 <0>         0.0824
     45 H14        16.4358   -0.9930   -0.1777 H         1 <0>         0.0824
     46 H15        15.5911   -1.7252   -1.5495 H         1 <0>         0.0706
     47 H16        17.7772    0.3575   -1.5631 H         1 <0>         0.0695
     48 H17        17.7363   -1.2169   -2.3723 H         1 <0>         0.0705
     49 H18        16.3367    1.3458   -3.1390 H         1 <0>         0.0744
     50 H19        17.4377    0.3494   -4.1028 H         1 <0>         0.0780
     51 H20        15.4395   -0.2422   -5.0679 H         1 <0>         0.0990
     52 H21        15.4923   -1.4565   -3.7598 H         1 <0>         0.0779
     53 H22        13.6586    0.7660   -3.9329 H         1 <0>         0.4157
@<TRIPOS>BOND
     1    1    6 ar
     2    1    2 ar
     3    1   32 1
     4    2    3 ar
     5    2   33 1
     6    3    4 ar
     7    3   34 1
     8    4    5 ar
     9    4   10 1
    10    5    6 ar
    11    5    7 1
    12    6   35 1
    13    7    8 2
    14    7    9 1
    15   10   11 1
    16   11   12 1
    17   11   36 1
    18   11   37 1
    19   12   13 2
    20   12   14 am
    21   14   15 1
    22   14   38 1
    23   15   20 ar
    24   15   16 ar
    25   16   17 ar
    26   16   39 1
    27   17   18 ar
    28   17   40 1
    29   18   19 ar
    30   18   41 1
    31   19   20 ar
    32   19   21 1
    33   20   42 1
    34   21   22 2
    35   21   23 2
    36   21   24 1
    37   24   25 2
    38   25   31 1
    39   25   26 1
    40   26   27 1
    41   26   43 1
    42   26   44 1
    43   27   28 1
    44   27   45 1
    45   27   46 1
    46   28   29 1
    47   28   47 1
    48   28   48 1
    49   29   30 1
    50   29   49 1
    51   29   50 1
    52   30   31 1
    53   30   51 1
    54   30   52 1
    55   31   53 1
