@<TRIPOS>MOLECULE
ZINC25365627
   35    36     0     0     0
SMALL
USER_CHARGES
(2,5-dimethylphenyl) 2-chloro-4-methyl-benzenesulfonate
@<TRIPOS>ATOM
      1 C1          0.0577   -4.2789   -0.0161 C.3       1 <0>        -0.1183
      2 C2          0.0382   -2.7720   -0.0122 C.ar      1 <0>        -0.0718
      3 C3          0.0407   -2.0841    1.1874 C.ar      1 <0>        -0.0939
      4 C4          0.0229   -0.7018    1.1944 C.ar      1 <0>        -0.1028
      5 C5          0.0021   -0.0041    0.0020 C.ar      1 <0>        -0.0531
      6 C6         -0.0058   -0.6918   -1.2026 C.ar      1 <0>         0.0642
      7 C7          0.0184   -2.0791   -1.2069 C.ar      1 <0>        -0.1143
      8 O1         -0.0319   -0.0078   -2.3766 O.3       1 <0>        -0.6539
      9 S1          1.3464    0.3227   -2.9313 S.o2      1 <0>         2.6683
     10 O2          1.1424    1.2033   -4.0278 O.2       1 <0>        -0.9284
     11 O3          2.1600    0.6675   -1.8185 O.2       1 <0>        -0.9299
     12 C8          2.0104   -1.1668   -3.5984 C.ar      1 <0>        -0.7075
     13 C9          1.7818   -1.4937   -4.9220 C.ar      1 <0>         0.0014
     14 C10         2.3030   -2.6619   -5.4456 C.ar      1 <0>        -0.1413
     15 C11         3.0532   -3.5042   -4.6459 C.ar      1 <0>        -0.0105
     16 C12         3.2820   -3.1787   -3.3225 C.ar      1 <0>        -0.1358
     17 C13         2.7653   -2.0065   -2.7993 C.ar      1 <0>         0.0590
     18 Cl1         3.0592   -1.5929   -1.1392 Cl        1 <0>        -0.0157
     19 C14         3.6219   -4.7772   -5.2178 C.3       1 <0>        -0.1293
     20 C15        -0.0184    1.5028    0.0103 C.3       1 <0>        -0.1229
     21 H1          0.0719   -4.6481    1.0200 H         1 <0>         0.0727
     22 H2          0.9558   -4.6326   -0.5437 H         1 <0>         0.0731
     23 H3         -0.8403   -4.6559   -0.5274 H         1 <0>         0.0741
     24 H4          0.0562   -2.6278    2.1205 H         1 <0>         0.1345
     25 H5          0.0249   -0.1669    2.1326 H         1 <0>         0.1391
     26 H6          0.0168   -2.6167   -2.1436 H         1 <0>         0.1338
     27 H7          1.1962   -0.8360   -5.5472 H         1 <0>         0.1504
     28 H8          2.1244   -2.9167   -6.4798 H         1 <0>         0.1418
     29 H9          3.8683   -3.8366   -2.6981 H         1 <0>         0.1442
     30 H10         4.1841   -5.3108   -4.4372 H         1 <0>         0.0750
     31 H11         4.2947   -4.5351   -6.0537 H         1 <0>         0.0839
     32 H12         2.8020   -5.4149   -5.5799 H         1 <0>         0.0836
     33 H13        -0.0333    1.8750   -1.0247 H         1 <0>         0.0565
     34 H14         0.8796    1.8789    0.5223 H         1 <0>         0.0904
     35 H15        -0.9165    1.8544    0.5393 H         1 <0>         0.0833
@<TRIPOS>BOND
     1    1    2 1
     2    1   21 1
     3    1   22 1
     4    1   23 1
     5    2    7 ar
     6    2    3 ar
     7    3    4 ar
     8    3   24 1
     9    4    5 ar
    10    4   25 1
    11    5    6 ar
    12    5   20 1
    13    6    7 ar
    14    6    8 1
    15    7   26 1
    16    8    9 1
    17    9   10 2
    18    9   11 2
    19    9   12 1
    20   12   17 ar
    21   12   13 ar
    22   13   14 ar
    23   13   27 1
    24   14   15 ar
    25   14   28 1
    26   15   16 ar
    27   15   19 1
    28   16   17 ar
    29   16   29 1
    30   17   18 1
    31   19   30 1
    32   19   31 1
    33   19   32 1
    34   20   33 1
    35   20   34 1
    36   20   35 1
