@<TRIPOS>MOLECULE
ZINC36236330
   39    40     0     0     0
SMALL
USER_CHARGES

@<TRIPOS>ATOM
      1 C1          0.4788    1.1796    0.2068 C.3       1 <0>        -0.1527
      2 C2          0.2708   -0.2392   -0.3267 C.3       1 <0>         0.0435
      3 O1         -1.0161   -0.7146    0.0731 O.3       1 <0>        -0.2888
      4 C3         -1.3610   -1.9694   -0.3222 C.ar      1 <0>         0.1243
      5 C4         -0.4761   -2.7271   -1.0737 C.ar      1 <0>        -0.1296
      6 C5         -0.8202   -4.0046   -1.4800 C.ar      1 <0>        -0.0084
      7 C6         -2.0468   -4.5362   -1.1412 C.ar      1 <0>        -0.0992
      8 C7         -2.9487   -3.7843   -0.3837 C.ar      1 <0>        -0.0923
      9 C8         -2.5979   -2.4939    0.0320 C.ar      1 <0>         0.1634
     10 O2         -3.4656   -1.7559    0.7733 O.3       1 <0>        -0.4672
     11 C9         -4.2607   -4.3484   -0.0198 C.2       1 <0>         0.1169
     12 N1         -4.4061   -5.6335    0.0926 N.2       1 <0>        -0.1947
     13 N2         -3.2821   -6.4698    0.0754 N.am      1 <0>        -0.5909
     14 C10        -3.4382   -7.8085    0.0723 C.2       1 <0>         0.5779
     15 O3         -4.5518   -8.2906   -0.0075 O.2       1 <0>        -0.4857
     16 C11        -2.2565   -8.6901    0.1658 C.ar      1 <0>        -0.1330
     17 C12        -0.9888   -8.1434    0.3751 C.ar      1 <0>        -0.0697
     18 C13         0.1104   -8.9714    0.4615 C.ar      1 <0>        -0.1115
     19 C14        -0.0411  -10.3430    0.3407 C.ar      1 <0>        -0.0043
     20 C15        -1.2960  -10.8913    0.1330 C.ar      1 <0>        -0.1139
     21 C16        -2.4036  -10.0740    0.0511 C.ar      1 <0>        -0.0382
     22 Cl1         1.3477  -11.3789    0.4495 Cl        1 <0>        -0.0537
     23 N3          0.1327   -4.8040   -2.2825 N.pl3     1 <0>         0.0297
     24 O4          1.1694   -4.3092   -2.6595 O.2       1 <0>        -0.1425
     25 O5         -0.1257   -5.9518   -2.5611 O.3       1 <0>        -0.1449
     26 H1          1.4604    1.5422   -0.0982 H         1 <0>         0.0857
     27 H2         -0.2924    1.8360   -0.1963 H         1 <0>         0.0701
     28 H3          0.4165    1.1713    1.2950 H         1 <0>         0.0705
     29 H4          0.3331   -0.2310   -1.4149 H         1 <0>         0.0710
     30 H5          1.0420   -0.8956    0.0764 H         1 <0>         0.0704
     31 H6          0.4864   -2.3183   -1.3437 H         1 <0>         0.1685
     32 H7         -2.3103   -5.5334   -1.4616 H         1 <0>         0.1657
     33 H8         -4.1177   -1.2714    0.2488 H         1 <0>         0.4061
     34 H9         -5.1012   -3.6927    0.1533 H         1 <0>         0.2023
     35 H10        -2.3917   -6.0853    0.0657 H         1 <0>         0.3908
     36 H11        -0.8694   -7.0741    0.4688 H         1 <0>         0.1237
     37 H12         1.0914   -8.5498    0.6234 H         1 <0>         0.1428
     38 H13        -1.4078  -11.9614    0.0396 H         1 <0>         0.1469
     39 H14        -3.3822  -10.5030   -0.1061 H         1 <0>         0.1511
@<TRIPOS>BOND
     1    1    2 1
     2    1   26 1
     3    1   27 1
     4    1   28 1
     5    2    3 1
     6    2   29 1
     7    2   30 1
     8    3    4 1
     9    4    9 ar
    10    4    5 ar
    11    5    6 ar
    12    5   31 1
    13    6    7 ar
    14    6   23 1
    15    7    8 ar
    16    7   32 1
    17    8    9 ar
    18    8   11 1
    19    9   10 1
    20   10   33 1
    21   11   12 2
    22   11   34 1
    23   12   13 1
    24   13   14 am
    25   13   35 1
    26   14   15 2
    27   14   16 1
    28   16   21 ar
    29   16   17 ar
    30   17   18 ar
    31   17   36 1
    32   18   19 ar
    33   18   37 1
    34   19   20 ar
    35   19   22 1
    36   20   21 ar
    37   20   38 1
    38   21   39 1
    39   23   24 2
    40   23   25 1
