@<TRIPOS>MOLECULE
ZINC67397531
   51    52     0     0     0
SMALL
USER_CHARGES

@<TRIPOS>ATOM
      1 C1         -0.0267    1.4464    0.0199 C.3       1 <0>        -0.1118
      2 C2         -0.0024   -0.0604    0.0229 C.ar      1 <0>        -0.0973
      3 C3          0.0012   -0.7542   -1.1717 C.ar      1 <0>        -0.1156
      4 C4          0.0234   -2.1367   -1.1696 C.ar      1 <0>        -0.1142
      5 C5          0.0421   -2.8283    0.0275 C.ar      1 <0>        -0.1156
      6 C6          0.0386   -2.1392    1.2248 C.ar      1 <0>        -0.0971
      7 C7          0.0221   -0.7520    1.2253 C.ar      1 <0>         0.0892
      8 O1          0.0247   -0.0717    2.4018 O.3       1 <0>        -0.3278
      9 C8         -1.2470    0.2331    2.9779 C.3       1 <0>         0.0684
     10 C9         -1.0436    0.9955    4.2887 C.3       1 <0>        -0.1337
     11 C10        -2.4052    1.3218    4.9054 C.3       1 <0>         0.1201
     12 N1         -2.2105    2.0518    6.1606 N.am      1 <0>        -0.6934
     13 C11        -3.2775    2.4460    6.8834 C.2       1 <0>         0.5136
     14 O2         -4.3997    2.1962    6.4946 O.2       1 <0>        -0.5105
     15 C12        -3.0790    3.1903    8.1630 C.2       1 <0>         0.5077
     16 O3         -1.9567    3.4402    8.5519 O.2       1 <0>        -0.4862
     17 N2         -4.1460    3.5845    8.8858 N.am      1 <0>        -0.6386
     18 C13        -3.9615    4.1777   10.1374 C.ar      1 <0>         0.1442
     19 C14        -2.8088    3.9172   10.8683 C.ar      1 <0>        -0.0672
     20 C15        -2.6294    4.5055   12.1045 C.ar      1 <0>        -0.0337
     21 C16        -3.5955    5.3533   12.6154 C.ar      1 <0>        -0.0644
     22 C17        -4.7438    5.6147   11.8908 C.ar      1 <0>        -0.0963
     23 C18        -4.9272    5.0338   10.6512 C.ar      1 <0>        -0.0569
     24 C19        -6.1763    5.3238    9.8596 C.3       1 <0>        -0.1289
     25 N3         -1.4021    4.2282   12.8840 N.pl3     1 <0>         0.0332
     26 O4         -0.5574    3.4870   12.4383 O.2       1 <0>        -0.1514
     27 O5         -1.2443    4.7430   13.9665 O.3       1 <0>        -0.1543
     28 C20         0.0589   -2.8936    2.5292 C.3       1 <0>        -0.1120
     29 H1          0.9949    1.8262    0.0077 H         1 <0>         0.0742
     30 H2         -0.5561    1.7994   -0.8651 H         1 <0>         0.0670
     31 H3         -0.5364    1.8033    0.9148 H         1 <0>         0.0663
     32 H4         -0.0138   -0.2163   -2.1081 H         1 <0>         0.1268
     33 H5          0.0258   -2.6772   -2.1046 H         1 <0>         0.1264
     34 H6          0.0591   -3.9082    0.0265 H         1 <0>         0.1269
     35 H7         -1.8216    0.8480    2.2852 H         1 <0>         0.0587
     36 H8         -1.7873   -0.6926    3.1760 H         1 <0>         0.0590
     37 H9         -0.4690    0.3806    4.9813 H         1 <0>         0.0857
     38 H10        -0.5033    1.9212    4.0905 H         1 <0>         0.0852
     39 H11        -2.9799    1.9368    4.2128 H         1 <0>         0.0806
     40 H12        -2.9455    0.3961    5.1036 H         1 <0>         0.0808
     41 H13        -1.3136    2.2515    6.4714 H         1 <0>         0.4176
     42 H14        -5.0421    3.4563    8.5373 H         1 <0>         0.4299
     43 H15        -2.0542    3.2551   10.4701 H         1 <0>         0.1749
     44 H16        -3.4529    5.8118   13.5828 H         1 <0>         0.1577
     45 H17        -5.4963    6.2769   12.2928 H         1 <0>         0.1555
     46 H18        -6.9463    4.5962   10.1163 H         1 <0>         0.0887
     47 H19        -6.5313    6.3270   10.0956 H         1 <0>         0.0868
     48 H20        -5.9549    5.2580    8.7944 H         1 <0>         0.0738
     49 H21         1.0914   -3.0591    2.8372 H         1 <0>         0.0744
     50 H22        -0.4594   -2.3135    3.2926 H         1 <0>         0.0664
     51 H23        -0.4404   -3.8541    2.4013 H         1 <0>         0.0671
@<TRIPOS>BOND
     1    1    2 1
     2    1   29 1
     3    1   30 1
     4    1   31 1
     5    2    7 ar
     6    2    3 ar
     7    3    4 ar
     8    3   32 1
     9    4    5 ar
    10    4   33 1
    11    5    6 ar
    12    5   34 1
    13    6    7 ar
    14    6   28 1
    15    7    8 1
    16    8    9 1
    17    9   10 1
    18    9   35 1
    19    9   36 1
    20   10   11 1
    21   10   37 1
    22   10   38 1
    23   11   12 1
    24   11   39 1
    25   11   40 1
    26   12   13 am
    27   12   41 1
    28   13   14 2
    29   13   15 1
    30   15   16 2
    31   15   17 am
    32   17   18 1
    33   17   42 1
    34   18   23 ar
    35   18   19 ar
    36   19   20 ar
    37   19   43 1
    38   20   21 ar
    39   20   25 1
    40   21   22 ar
    41   21   44 1
    42   22   23 ar
    43   22   45 1
    44   23   24 1
    45   24   46 1
    46   24   47 1
    47   24   48 1
    48   25   26 2
    49   25   27 1
    50   28   49 1
    51   28   50 1
    52   28   51 1
