@<TRIPOS>MOLECULE
ZINC39609144
   68    71     0     0     0
SMALL
USER_CHARGES

@<TRIPOS>ATOM
      1 C1          0.0566    1.5056    0.0064 C.3       1 <0>        -0.1260
      2 C2          0.0572   -0.0014   -0.0008 C.ar      1 <0>        -0.0485
      3 C3         -0.5481   -0.6854   -1.0400 C.ar      1 <0>        -0.1268
      4 C4         -0.5511   -2.0649   -1.0526 C.ar      1 <0>        -0.0531
      5 C5          0.0583   -2.7706   -0.0140 C.ar      1 <0>        -0.1509
      6 C6          0.6671   -2.0744    1.0314 C.ar      1 <0>        -0.0907
      7 C7          0.6680   -0.6948    1.0290 C.ar      1 <0>        -0.1281
      8 C8          0.0584   -4.2490   -0.0207 C.2       1 <0>         0.5910
      9 O1         -0.0470   -4.8520   -1.0709 O.2       1 <0>        -0.5275
     10 N1          0.1754   -4.9282    1.1375 N.am      1 <0>        -0.6207
     11 C9          0.1853   -4.3806    2.5144 C.3       1 <0>         0.1024
     12 C10        -0.6332   -5.3952    3.3439 C.3       1 <0>        -0.1151
     13 H1         -1.6717   -5.0732    3.4199 H         1 <0>         0.1133
     14 C11        -0.5374   -6.7132    2.5572 C.3       1 <0>        -0.0726
     15 C12         0.3167   -6.3925    1.3219 C.3       1 <0>         0.1082
     16 C13         0.1392   -7.7865    3.4045 C.3       1 <0>        -0.1470
     17 C14         0.1704   -9.1028    2.6227 C.3       1 <0>        -0.0078
     18 N2         -1.2000   -9.5078    2.2874 N.4       1 <0>        -0.5042
     19 C15        -1.8116   -8.5145    1.3962 C.3       1 <0>        -0.0113
     20 C16        -1.9268   -7.1733    2.1262 C.3       1 <0>        -0.1340
     21 C17        -0.0329   -5.5561    4.7168 C.2       1 <0>         0.5195
     22 O2          1.1438   -5.3227    4.8954 O.2       1 <0>        -0.5183
     23 N3         -0.8037   -5.9593    5.7463 N.am      1 <0>        -0.7289
     24 C18        -0.2202   -6.1157    7.0809 C.3       1 <0>         0.1209
     25 C19        -1.3014   -6.5796    8.0591 C.3       1 <0>        -0.0857
     26 C20        -0.7012   -6.7405    9.4320 C.ar      1 <0>        -0.0952
     27 C21        -0.1567   -7.9536    9.8106 C.ar      1 <0>        -0.1164
     28 C22         0.3938   -8.1011   11.0697 C.ar      1 <0>        -0.1145
     29 C23         0.4004   -7.0355   11.9505 C.ar      1 <0>        -0.0803
     30 C24        -0.1431   -5.8225   11.5717 C.ar      1 <0>        -0.0805
     31 C25        -0.6899   -5.6736   10.3107 C.ar      1 <0>        -0.1091
     32 C26        -0.1364   -4.6610   12.5320 C.3       1 <0>        -0.1230
     33 C27         0.9998   -7.1966   13.3238 C.3       1 <0>        -0.1238
     34 H2          0.9412    1.8718   -0.5147 H         1 <0>         0.0798
     35 H3         -0.8386    1.8710   -0.4967 H         1 <0>         0.0732
     36 H4          0.0669    1.8640    1.0357 H         1 <0>         0.0725
     37 H5         -1.0196   -0.1382   -1.8429 H         1 <0>         0.1339
     38 H6         -1.0243   -2.5977   -1.8643 H         1 <0>         0.1346
     39 H7          1.1403   -2.6145    1.8381 H         1 <0>         0.1334
     40 H8          1.1425   -0.1549    1.8351 H         1 <0>         0.1320
     41 H9          1.2063   -4.3177    2.8910 H         1 <0>         0.1028
     42 H10        -0.2900   -3.4000    2.5369 H         1 <0>         0.1016
     43 H11        -0.0629   -6.9243    0.4494 H         1 <0>         0.0908
     44 H12         1.3590   -6.6542    1.5043 H         1 <0>         0.0850
     45 H13         1.1581   -7.4774    3.6376 H         1 <0>         0.1249
     46 H14        -0.4201   -7.9259    4.3296 H         1 <0>         0.0980
     47 H15         0.7436   -8.9669    1.7056 H         1 <0>         0.1336
     48 H16         0.6387   -9.8759    3.2320 H         1 <0>         0.1394
     49 H17        -1.1809  -10.4050    1.8261 H         1 <0>         0.4345
     50 H18        -1.1913   -8.3925    0.5083 H         1 <0>         0.1346
     51 H19        -2.8046   -8.8539    1.1014 H         1 <0>         0.1401
     52 H20        -2.5603   -7.2907    3.0054 H         1 <0>         0.0962
     53 H21        -2.3646   -6.4317    1.4580 H         1 <0>         0.1186
     54 H22        -1.7448   -6.1460    5.6035 H         1 <0>         0.4001
     55 H23         0.5783   -6.8567    7.0438 H         1 <0>         0.0734
     56 H24         0.1857   -5.1606    7.4142 H         1 <0>         0.0756
     57 H25        -2.0999   -5.8385    8.0962 H         1 <0>         0.0801
     58 H26        -1.7073   -7.5347    7.7258 H         1 <0>         0.0757
     59 H27        -0.1618   -8.7860    9.1225 H         1 <0>         0.1179
     60 H28         0.8185   -9.0490   11.3657 H         1 <0>         0.1237
     61 H29        -1.1112   -4.7247   10.0133 H         1 <0>         0.1218
     62 H30         0.7795   -4.0851   12.3992 H         1 <0>         0.0736
     63 H31        -0.9983   -4.0230   12.3366 H         1 <0>         0.0672
     64 H32        -0.1854   -5.0349   13.5547 H         1 <0>         0.0736
     65 H33         2.0586   -6.9400   13.2905 H         1 <0>         0.0739
     66 H34         0.4876   -6.5362   14.0235 H         1 <0>         0.0733
     67 H35         0.8866   -8.2303   13.6506 H         1 <0>         0.0678
     68 H36        -1.7448   -9.5792    3.1336 H         1 <0>         0.4273
@<TRIPOS>BOND
     1    1    2 1
     2    1   34 1
     3    1   35 1
     4    1   36 1
     5    2    7 ar
     6    2    3 ar
     7    3    4 ar
     8    3   37 1
     9    4    5 ar
    10    4   38 1
    11    5    6 ar
    12    5    8 1
    13    6    7 ar
    14    6   39 1
    15    7   40 1
    16    8    9 2
    17    8   10 am
    18   10   15 1
    19   10   11 1
    20   11   12 1
    21   11   41 1
    22   11   42 1
    23   12   13 1
    24   12   14 1
    25   12   21 1
    26   14   20 1
    27   14   15 1
    28   14   16 1
    29   15   43 1
    30   15   44 1
    31   16   17 1
    32   16   45 1
    33   16   46 1
    34   17   18 1
    35   17   47 1
    36   17   48 1
    37   18   19 1
    38   18   49 1
    39   18   68 1
    40   19   20 1
    41   19   50 1
    42   19   51 1
    43   20   52 1
    44   20   53 1
    45   21   22 2
    46   21   23 am
    47   23   24 1
    48   23   54 1
    49   24   25 1
    50   24   55 1
    51   24   56 1
    52   25   26 1
    53   25   57 1
    54   25   58 1
    55   26   31 ar
    56   26   27 ar
    57   27   28 ar
    58   27   59 1
    59   28   29 ar
    60   28   60 1
    61   29   30 ar
    62   29   33 1
    63   30   31 ar
    64   30   32 1
    65   31   61 1
    66   32   62 1
    67   32   63 1
    68   32   64 1
    69   33   65 1
    70   33   66 1
    71   33   67 1
