@<TRIPOS>MOLECULE
ZINC36289692
   39    41     0     0     0
SMALL
USER_CHARGES

@<TRIPOS>ATOM
      1 C1          0.7062    1.4157   -0.3604 C.3       1 <0>         0.0729
      2 N1          0.3879   -0.0062   -0.2082 N.pl3     1 <0>        -0.7038
      3 C2          0.7589   -0.6784    0.9414 C.ar      1 <0>         0.3173
      4 C3          1.5664   -0.0429    1.8903 C.ar      1 <0>        -0.2075
      5 C4          1.9352   -0.7005    3.0243 C.ar      1 <0>         0.0438
      6 C5          1.5014   -2.0231    3.2410 C.ar      1 <0>        -0.1555
      7 C6          0.6880   -2.6580    2.2824 C.ar      1 <0>         0.0529
      8 C7          0.3208   -1.9891    1.1541 C.ar      1 <0>        -0.0896
      9 N2         -0.5390   -2.6529    0.1486 N.pl3     1 <0>        -0.0140
     10 O1         -1.4710   -1.9650   -0.4780 O.2       1 <0>        -0.1878
     11 O2         -0.3719   -3.9314   -0.1196 O.3       1 <0>        -0.1461
     12 C8          1.8822   -2.7121    4.4182 C.2       1 <0>         0.2460
     13 N3          2.6427   -2.1167    5.3122 N.2       1 <0>        -0.2982
     14 N4          3.0737   -2.7757    6.3339 N.pl3     1 <0>        -0.2766
     15 C9          2.7408   -2.5692    7.6282 C.2       1 <0>         0.2928
     16 N5          3.3995   -3.4573    8.3646 N.2       1 <0>        -0.2673
     17 N6          4.1193   -4.1992    7.5978 N.pl3     1 <0>        -0.3903
     18 C10         3.9413   -3.8107    6.3197 C.2       1 <0>         0.3881
     19 S1          4.6794   -4.4986    4.9366 S.2       1 <0>        -0.5636
     20 C11         1.8122   -1.5408    8.1325 C.ar      1 <0>        -0.0426
     21 C12         1.1784   -0.6682    7.2415 C.ar      1 <0>        -0.0872
     22 C13         0.3112    0.2903    7.7206 C.ar      1 <0>        -0.1198
     23 C14         0.0671    0.3909    9.0799 C.ar      1 <0>        -0.0904
     24 C15         0.6910   -0.4689    9.9681 C.ar      1 <0>        -0.1208
     25 C16         1.5560   -1.4366    9.5039 C.ar      1 <0>        -0.0667
     26 H1          1.7864    1.5535   -0.3118 H         1 <0>         0.0713
     27 H2          0.3378    1.7695   -1.3234 H         1 <0>         0.0914
     28 H3          0.2313    1.9821    0.4406 H         1 <0>         0.0736
     29 H4         -0.0831   -0.4760   -0.9141 H         1 <0>         0.4177
     30 H5          1.8984    0.9712    1.7231 H         1 <0>         0.1565
     31 H6          2.5594   -0.2091    3.7559 H         1 <0>         0.1579
     32 H7          0.3529   -3.6720    2.4434 H         1 <0>         0.1602
     33 H8          1.5486   -3.7260    4.5824 H         1 <0>         0.1324
     34 H9          1.3683   -0.7450    6.1811 H         1 <0>         0.1397
     35 H10        -0.1789    0.9647    7.0340 H         1 <0>         0.1330
     36 H11        -0.6130    1.1441    9.4493 H         1 <0>         0.1314
     37 H12         0.4962   -0.3838   11.0270 H         1 <0>         0.1350
     38 H13         2.0384   -2.1094   10.1974 H         1 <0>         0.1380
     39 H14         4.6939   -4.9232    7.8920 H         1 <0>         0.4758
@<TRIPOS>BOND
     1    1    2 1
     2    1   26 1
     3    1   27 1
     4    1   28 1
     5    2    3 1
     6    2   29 1
     7    3    8 ar
     8    3    4 ar
     9    4    5 ar
    10    4   30 1
    11    5    6 ar
    12    5   31 1
    13    6    7 ar
    14    6   12 1
    15    7    8 ar
    16    7   32 1
    17    8    9 1
    18    9   10 2
    19    9   11 1
    20   12   13 2
    21   12   33 1
    22   13   14 1
    23   14   18 1
    24   14   15 1
    25   15   16 2
    26   15   20 1
    27   16   17 1
    28   17   18 1
    29   17   39 1
    30   18   19 2
    31   20   25 ar
    32   20   21 ar
    33   21   22 ar
    34   21   34 1
    35   22   23 ar
    36   22   35 1
    37   23   24 ar
    38   23   36 1
    39   24   25 ar
    40   24   37 1
    41   25   38 1
