@<TRIPOS>MOLECULE
ZINC13692793
   59    62     0     0     0
SMALL
USER_CHARGES
N-[(3R,4S)-4-hydroxy-1,1-dioxo-thiolan-3-yl]-2-(5-methoxy-4,8,8-trimethyl-2-oxo-9,10-dihydropyrano[6,5-f]chromen-3-yl)acetamide
@<TRIPOS>ATOM
      1 C1         -3.3186    3.7246    5.9647 C.3       1 <0>        -0.1328
      2 C2         -3.4700    5.1912    5.6529 C.2       1 <0>         0.0774
      3 C3         -4.1251    5.5965    4.5338 C.2       1 <0>        -0.2427
      4 C4         -4.2628    6.9720    4.2605 C.2       1 <0>         0.5236
      5 O1         -4.8567    7.3273    3.2580 O.2       1 <0>        -0.4662
      6 O2         -3.7497    7.8983    5.0884 O.3       1 <0>        -0.2609
      7 C5         -3.0866    7.5355    6.2093 C.ar      1 <0>         0.2241
      8 C6         -2.9273    6.1736    6.5200 C.ar      1 <0>        -0.2104
      9 C7         -2.2374    5.8014    7.6870 C.ar      1 <0>         0.2271
     10 C8         -1.7256    6.7788    8.5143 C.ar      1 <0>        -0.2666
     11 C9         -1.8859    8.1299    8.2025 C.ar      1 <0>         0.2395
     12 C10        -2.5604    8.5050    7.0536 C.ar      1 <0>        -0.2173
     13 C11        -2.7376    9.9562    6.6838 C.3       1 <0>        -0.0694
     14 C12        -2.4958   10.8357    7.9129 C.3       1 <0>        -0.1478
     15 C13        -1.1901   10.3825    8.5787 C.3       1 <0>         0.1093
     16 O3         -1.3687    9.0494    9.0576 O.3       1 <0>        -0.2946
     17 C14        -0.8593   11.3107    9.7492 C.3       1 <0>        -0.1397
     18 C15        -0.0520   10.4150    7.5567 C.3       1 <0>        -0.1791
     19 O4         -2.0768    4.4901    7.9973 O.3       1 <0>        -0.2914
     20 C16        -1.3650    4.1905    9.1997 C.3       1 <0>         0.0127
     21 C17        -4.7087    4.5771    3.5897 C.3       1 <0>        -0.0780
     22 C18        -3.6841    4.2145    2.5459 C.2       1 <0>         0.5197
     23 O5         -2.5878    4.7328    2.5665 O.2       1 <0>        -0.5254
     24 N1         -3.9859    3.3142    1.5895 N.am      1 <0>        -0.7116
     25 C19        -2.9898    2.9617    0.5747 C.3       1 <0>         0.1516
     26 H1         -2.3830    3.8350    0.3356 H         1 <0>         0.1251
     27 C20        -2.0774    1.8191    1.1086 C.3       1 <0>        -0.5881
     28 S1         -1.3888    1.1725   -0.4733 S.o2      1 <0>         2.3787
     29 O6         -1.4295   -0.2477   -0.4490 O.2       1 <0>        -0.9287
     30 O7         -0.1602    1.8322   -0.7466 O.2       1 <0>        -0.9281
     31 C21        -2.6707    1.7879   -1.6396 C.3       1 <0>        -0.6203
     32 C22        -3.6970    2.4576   -0.6942 C.3       1 <0>         0.0991
     33 H2         -4.1646    3.2991   -1.2054 H         1 <0>         0.0975
     34 O8         -4.6998    1.5060   -0.3322 O.3       1 <0>        -0.5567
     35 H3         -2.3426    3.3795    5.6236 H         1 <0>         0.0915
     36 H4         -3.4025    3.5713    7.0406 H         1 <0>         0.1018
     37 H5         -4.1012    3.1622    5.4555 H         1 <0>         0.0761
     38 H6         -1.1960    6.4963    9.4121 H         1 <0>         0.1496
     39 H7         -2.0250   10.2210    5.9027 H         1 <0>         0.0830
     40 H8         -3.7518   10.1158    6.3176 H         1 <0>         0.0880
     41 H9         -3.3235   10.7241    8.6133 H         1 <0>         0.0804
     42 H10        -2.4103   11.8787    7.6082 H         1 <0>         0.0912
     43 H11         0.0583   10.9741   10.2317 H         1 <0>         0.0699
     44 H12        -0.7238   12.3272    9.3798 H         1 <0>         0.0825
     45 H13        -1.6768   11.2920   10.4700 H         1 <0>         0.0688
     46 H14        -0.2961    9.7602    6.7202 H         1 <0>         0.0672
     47 H15         0.0812   11.4340    7.1935 H         1 <0>         0.0783
     48 H16         0.8696   10.0739    8.0282 H         1 <0>         0.0691
     49 H17        -0.3577    4.6024    9.1378 H         1 <0>         0.0640
     50 H18        -1.8861    4.6309   10.0497 H         1 <0>         0.0641
     51 H19        -1.3083    3.1096    9.3286 H         1 <0>         0.1085
     52 H20        -5.5904    4.9949    3.1037 H         1 <0>         0.1140
     53 H21        -4.9904    3.6843    4.1480 H         1 <0>         0.1134
     54 H22        -4.8627    2.8997    1.5730 H         1 <0>         0.4136
     55 H23        -2.6615    1.0572    1.6249 H         1 <0>         0.1484
     56 H24        -1.2887    2.2108    1.7509 H         1 <0>         0.1474
     57 H25        -2.2472    2.5178   -2.3295 H         1 <0>         0.1514
     58 H26        -3.1257    0.9612   -2.1853 H         1 <0>         0.1525
     59 H27        -5.2081    1.1660   -1.0812 H         1 <0>         0.3953
@<TRIPOS>BOND
     1    1    2 1
     2    1   35 1
     3    1   36 1
     4    1   37 1
     5    2    8 1
     6    2    3 2
     7    3    4 1
     8    3   21 1
     9    4    5 2
    10    4    6 1
    11    6    7 1
    12    7   12 ar
    13    7    8 ar
    14    8    9 ar
    15    9   10 ar
    16    9   19 1
    17   10   11 ar
    18   10   38 1
    19   11   16 1
    20   11   12 ar
    21   12   13 1
    22   13   14 1
    23   13   39 1
    24   13   40 1
    25   14   15 1
    26   14   41 1
    27   14   42 1
    28   15   16 1
    29   15   17 1
    30   15   18 1
    31   17   43 1
    32   17   44 1
    33   17   45 1
    34   18   46 1
    35   18   47 1
    36   18   48 1
    37   19   20 1
    38   20   49 1
    39   20   50 1
    40   20   51 1
    41   21   22 1
    42   21   52 1
    43   21   53 1
    44   22   23 2
    45   22   24 am
    46   24   25 1
    47   24   54 1
    48   25   26 1
    49   25   32 1
    50   25   27 1
    51   27   28 1
    52   27   55 1
    53   27   56 1
    54   28   29 2
    55   28   30 2
    56   28   31 1
    57   31   32 1
    58   31   57 1
    59   31   58 1
    60   32   33 1
    61   32   34 1
    62   34   59 1
