@<TRIPOS>MOLECULE
ZINC12028100
   61    64     0     0     0
SMALL
USER_CHARGES
(3S)-1-[5,6,7-trimethoxy-3-[(3-thienylmethylamino)methyl]-2-quinolyl]piperidin-3-ol
@<TRIPOS>ATOM
      1 C1          1.1685    6.7501    2.5122 C.3       1 <0>         0.0178
      2 O1          1.2842    5.3328    2.3704 O.3       1 <0>        -0.2912
      3 C2          0.2489    4.6860    1.7734 C.ar      1 <0>         0.1721
      4 C3         -0.8428    5.4044    1.3398 C.ar      1 <0>        -0.2071
      5 C4         -1.9157    4.7435    0.7224 C.ar      1 <0>         0.2062
      6 C5         -1.8607    3.3379    0.5526 C.ar      1 <0>        -0.1486
      7 C6         -2.9399    2.6796   -0.0675 C.ar      1 <0>         0.0182
      8 C7         -4.0019    3.4271   -0.4825 C.ar      1 <0>        -0.2080
      9 C8         -3.9983    4.8145   -0.2866 C.ar      1 <0>         0.3469
     10 N1         -2.9862    5.4255    0.2945 N.ar      1 <0>        -0.4867
     11 N2         -5.0863    5.5622   -0.7143 N.pl3     1 <0>        -0.4997
     12 C9         -4.6751    6.5781   -1.6917 C.3       1 <0>         0.0472
     13 C10        -5.9140    7.2834   -2.2482 C.3       1 <0>        -0.1133
     14 C11        -6.6832    7.9375   -1.0971 C.3       1 <0>        -0.1611
     15 C12        -7.0575    6.8657   -0.0697 C.3       1 <0>         0.1124
     16 H1         -7.7158    6.1311   -0.5335 H         1 <0>         0.0630
     17 C13        -5.7855    6.1725    0.4237 C.3       1 <0>         0.0655
     18 O2         -7.7274    7.4761    1.0352 O.3       1 <0>        -0.5643
     19 C14        -5.1775    2.7622   -1.1512 C.3       1 <0>         0.0678
     20 C15        -6.2351    2.3438   -3.2888 C.3       1 <0>         0.0653
     21 C16        -6.1158    2.5738   -4.7733 C.2       1 <0>        -0.1925
     22 C17        -6.6823    3.6910   -5.3578 C.2       1 <0>        -0.1650
     23 C18        -6.5518    3.8708   -6.6950 C.2       1 <0>        -0.1555
     24 S1         -5.6166    2.4270   -7.1722 S.3       1 <0>         0.1199
     25 C19        -5.4562    1.6854   -5.5562 C.2       1 <0>        -0.1525
     26 C20        -0.7349    2.6224    1.0027 C.ar      1 <0>         0.1426
     27 C21         0.3030    3.2971    1.6109 C.ar      1 <0>         0.0700
     28 O3          1.3905    2.6073    2.0523 O.3       1 <0>        -0.3166
     29 C22         2.4793    2.4589    1.1387 C.3       1 <0>         0.0367
     30 O4         -0.6736    1.2741    0.8439 O.3       1 <0>        -0.3238
     31 C23        -1.1111    0.4710    1.9420 C.3       1 <0>         0.0326
     32 H2          0.2904    6.9845    3.1140 H         1 <0>         0.0654
     33 H3          2.0601    7.1401    3.0030 H         1 <0>         0.1139
     34 H4          1.0666    7.2066    1.5277 H         1 <0>         0.0639
     35 H5         -0.8731    6.4756    1.4745 H         1 <0>         0.1555
     36 H6         -2.9269    1.6092   -0.2105 H         1 <0>         0.1566
     37 H7         -4.0287    7.3089   -1.2058 H         1 <0>         0.0667
     38 H8         -4.1329    6.0992   -2.5070 H         1 <0>         0.0742
     39 H9         -6.5543    6.5554   -2.7464 H         1 <0>         0.0704
     40 H10        -5.6076    8.0481   -2.9620 H         1 <0>         0.0830
     41 H11        -7.5894    8.4042   -1.4832 H         1 <0>         0.0757
     42 H12        -6.0566    8.6932   -0.6233 H         1 <0>         0.0756
     43 H13        -6.0497    5.3990    1.1448 H         1 <0>         0.0868
     44 H14        -5.1339    6.9052    0.8997 H         1 <0>         0.0671
     45 H15        -8.5441    7.9349    0.7953 H         1 <0>         0.3894
     46 H16        -5.1634    1.6944   -0.9332 H         1 <0>         0.1360
     47 H17        -6.1033    3.1976   -0.7753 H         1 <0>         0.1452
     48 H18        -6.2398    1.2728   -3.0862 H         1 <0>         0.1371
     49 H19        -7.1627    2.7863   -2.9259 H         1 <0>         0.1378
     50 H20        -7.2173    4.4119   -4.7575 H         1 <0>         0.1429
     51 H21        -6.9221    4.6760   -7.3123 H         1 <0>         0.1961
     52 H22        -4.9616    0.7673   -5.2753 H         1 <0>         0.1965
     53 H23         2.1195    2.0052    0.2153 H         1 <0>         0.0514
     54 H24         2.9062    3.4378    0.9203 H         1 <0>         0.0520
     55 H25         3.2426    1.8207    1.5838 H         1 <0>         0.1032
     56 H26        -1.0908   -0.5802    1.6541 H         1 <0>         0.1058
     57 H27        -2.1276    0.7530    2.2161 H         1 <0>         0.0491
     58 H28        -0.4485    0.6274    2.7932 H         1 <0>         0.0628
     59 N3         -5.0867    2.9719   -2.6085 N.4       1 <0>        -0.5164
     60 H29        -4.2163    2.5537   -2.9573 H         1 <0>         0.4265
     61 H30        -5.0856    3.9795   -2.8063 H         1 <0>         0.4316
@<TRIPOS>BOND
     1    1    2 1
     2    1   32 1
     3    1   33 1
     4    1   34 1
     5    2    3 1
     6    3   27 ar
     7    3    4 ar
     8    4    5 ar
     9    4   35 1
    10    5   10 ar
    11    5    6 ar
    12    6    7 ar
    13    6   26 ar
    14    7    8 ar
    15    7   36 1
    16    8    9 ar
    17    8   19 1
    18    9   10 ar
    19    9   11 1
    20   11   17 1
    21   11   12 1
    22   12   13 1
    23   12   37 1
    24   12   38 1
    25   13   14 1
    26   13   39 1
    27   13   40 1
    28   14   15 1
    29   14   41 1
    30   14   42 1
    31   15   16 1
    32   15   17 1
    33   15   18 1
    34   17   43 1
    35   17   44 1
    36   18   45 1
    37   19   46 1
    38   19   47 1
    39   19   59 1
    40   20   21 1
    41   20   48 1
    42   20   49 1
    43   20   59 1
    44   21   25 2
    45   21   22 1
    46   22   23 2
    47   22   50 1
    48   23   24 1
    49   23   51 1
    50   24   25 1
    51   25   52 1
    52   26   27 ar
    53   26   30 1
    54   27   28 1
    55   28   29 1
    56   29   53 1
    57   29   54 1
    58   29   55 1
    59   30   31 1
    60   31   56 1
    61   31   57 1
    62   31   58 1
    63   59   60 1
    64   59   61 1
