@<TRIPOS>MOLECULE
ZINC63993514
   66    69     0     0     0
SMALL
USER_CHARGES

@<TRIPOS>ATOM
      1 C1         -0.0187    1.5258    0.0104 C.3       1 <0>        -0.1577
      2 C2          0.0021   -0.0041    0.0020 C.3       1 <0>        -0.1367
      3 C3          0.7421   -0.5109    1.2415 C.3       1 <0>         0.1345
      4 H1          0.2852   -0.0874    2.1360 H         1 <0>         0.0862
      5 C4          0.6554   -2.0374    1.2986 C.3       1 <0>        -0.1764
      6 N1          2.1476   -0.1038    1.1716 N.pl3     1 <0>        -0.6990
      7 C5          2.8967    0.0316    2.3471 C.ar      1 <0>         0.2036
      8 C6          4.2338    0.4239    2.2961 C.ar      1 <0>        -0.0003
      9 C7          4.9306    0.5433    3.4831 C.ar      1 <0>        -0.1253
     10 C8          4.2995    0.2754    4.6898 C.ar      1 <0>         0.3773
     11 N2          3.0199   -0.0968    4.6934 N.ar      1 <0>        -0.4398
     12 C9          2.3212   -0.2162    3.5838 C.ar      1 <0>         0.0262
     13 N3          5.1641    0.4512    5.7682 N.pl3     1 <0>        -0.5791
     14 C10         6.4861    0.8687    5.2942 C.3       1 <0>         0.1516
     15 H2          7.2392    0.1338    5.5786 H         1 <0>         0.1587
     16 C11         6.3615    0.9396    3.7631 C.3       1 <0>         0.1994
     17 H3          7.0500    0.2380    3.2922 H         1 <0>         0.1568
     18 N4          6.6164    2.3030    3.2916 N.am      1 <0>        -0.7333
     19 C12         6.9848    2.5160    2.0128 C.2       1 <0>         0.5241
     20 O1          7.1053    1.5789    1.2523 O.2       1 <0>        -0.5217
     21 C13         7.2471    3.9185    1.5278 C.3       1 <0>        -0.1783
     22 C14         6.8393    2.2220    5.8553 C.2       1 <0>         0.4410
     23 O2          5.9718    2.9388    6.2951 O.2       1 <0>        -0.4800
     24 O3          8.1177    2.6311    5.8664 O.3       1 <0>        -0.3336
     25 C15         8.3800    3.9250    6.4130 C.3       1 <0>         0.0279
     26 C16         4.8030    0.2487    7.1735 C.3       1 <0>         0.1264
     27 C17         5.0790   -1.2039    7.5667 C.3       1 <0>        -0.1144
     28 C18         4.7076   -1.4123    9.0123 C.2       1 <0>         0.0439
     29 C19         3.5359   -1.8900    9.4901 C.ar      1 <0>        -0.1527
     30 C20         2.3034   -2.3402    8.8324 C.ar      1 <0>        -0.0377
     31 C21         1.2740   -2.7743    9.5946 C.ar      1 <0>        -0.1296
     32 C22         1.3543   -2.8046   10.9936 C.ar      1 <0>         0.0508
     33 C23         2.4530   -2.4072   11.6697 C.ar      1 <0>        -0.2004
     34 C24         3.5957   -1.9323   10.9687 C.ar      1 <0>         0.3301
     35 N5          4.7590   -1.4977   11.3886 N.pl3     1 <0>        -0.5748
     36 C25         5.5720   -1.1357   10.2221 C.3       1 <0>         0.0608
     37 H4          1.0039    1.9031    0.0027 H         1 <0>         0.0533
     38 H5         -0.5459    1.8868   -0.8726 H         1 <0>         0.0677
     39 H6         -0.5289    1.8773    0.9072 H         1 <0>         0.0563
     40 H7         -1.0205   -0.3814    0.0098 H         1 <0>         0.0919
     41 H8          0.5123   -0.3556   -0.8948 H         1 <0>         0.0782
     42 H9          1.1123   -2.4609    0.4042 H         1 <0>         0.0720
     43 H10         1.1826   -2.3985    2.1817 H         1 <0>         0.0557
     44 H11        -0.3904   -2.3402    1.3506 H         1 <0>         0.0812
     45 H12         2.5595    0.0718    0.3111 H         1 <0>         0.4223
     46 H13         4.7137    0.6292    1.3506 H         1 <0>         0.1786
     47 H14         1.2850   -0.5160    3.6376 H         1 <0>         0.2064
     48 H15         6.5201    3.0525    3.8998 H         1 <0>         0.4048
     49 H16         8.2979    4.1651    1.6801 H         1 <0>         0.1075
     50 H17         7.0081    3.9866    0.4665 H         1 <0>         0.1066
     51 H18         6.6251    4.6183    2.0860 H         1 <0>         0.0832
     52 H19         7.8366    4.6778    5.8419 H         1 <0>         0.0707
     53 H20         8.0546    3.9529    7.4529 H         1 <0>         0.0690
     54 H21         9.4491    4.1314    6.3613 H         1 <0>         0.1197
     55 H22         5.3966    0.9139    7.8006 H         1 <0>         0.1148
     56 H23         3.7443    0.4677    7.3118 H         1 <0>         0.0989
     57 H24         4.4854   -1.8691    6.9396 H         1 <0>         0.1114
     58 H25         6.1377   -1.4229    7.4284 H         1 <0>         0.1260
     59 H26         2.2196   -2.3247    7.7557 H         1 <0>         0.1531
     60 H27         0.3662   -3.1061    9.1127 H         1 <0>         0.1609
     61 H28         0.5021   -3.1601   11.5537 H         1 <0>         0.1662
     62 H29         2.4643   -2.4499   12.7488 H         1 <0>         0.1659
     63 H30         6.4744   -1.7460   10.1865 H         1 <0>         0.1789
     64 H31         5.8340   -0.0785   10.2628 H         1 <0>         0.1739
     65 H32         5.0373   -1.4304   12.3154 H         1 <0>         0.4605
     66 H33         2.5877   -0.2818    5.5419 H         1 <0>         0.4360
@<TRIPOS>BOND
     1    1    2 1
     2    1   37 1
     3    1   38 1
     4    1   39 1
     5    2    3 1
     6    2   40 1
     7    2   41 1
     8    3    4 1
     9    3    5 1
    10    3    6 1
    11    5   42 1
    12    5   43 1
    13    5   44 1
    14    6    7 1
    15    6   45 1
    16    7   12 ar
    17    7    8 ar
    18    8    9 ar
    19    8   46 1
    20    9   16 1
    21    9   10 ar
    22   10   11 ar
    23   10   13 1
    24   11   12 ar
    25   11   66 1
    26   12   47 1
    27   13   14 1
    28   13   26 1
    29   14   15 1
    30   14   16 1
    31   14   22 1
    32   16   17 1
    33   16   18 1
    34   18   19 am
    35   18   48 1
    36   19   20 2
    37   19   21 1
    38   21   49 1
    39   21   50 1
    40   21   51 1
    41   22   23 2
    42   22   24 1
    43   24   25 1
    44   25   52 1
    45   25   53 1
    46   25   54 1
    47   26   27 1
    48   26   55 1
    49   26   56 1
    50   27   28 1
    51   27   57 1
    52   27   58 1
    53   28   36 1
    54   28   29 2
    55   29   34 ar
    56   29   30 ar
    57   30   31 ar
    58   30   59 1
    59   31   32 ar
    60   31   60 1
    61   32   33 ar
    62   32   61 1
    63   33   34 ar
    64   33   62 1
    65   34   35 2
    66   35   36 1
    67   35   65 1
    68   36   63 1
    69   36   64 1
