@<TRIPOS>MOLECULE
ZINC17888025
   49    51     0     0     0
SMALL
USER_CHARGES

@<TRIPOS>ATOM
      1 C1         -2.1735   -0.1261   -5.1396 C.3       1 <0>        -0.1250
      2 C2         -1.3923   -0.8673   -4.0853 C.ar      1 <0>        -0.1292
      3 C3         -0.6151   -1.9446   -4.4415 C.ar      1 <0>         0.1006
      4 C4          0.1121   -2.6289   -3.4365 C.ar      1 <0>        -0.1261
      5 C5          0.9898   -3.7810   -3.5753 C.2       1 <0>         0.2488
      6 C6          1.5964   -4.2805   -2.4442 C.2       1 <0>        -0.2697
      7 S1          1.0021   -3.2097   -1.1498 S.3       1 <0>         0.2741
      8 C7         -0.0258   -2.1344   -2.1195 C.ar      1 <0>         0.0203
      9 N1         -0.7835   -1.0990   -1.8289 N.ar      1 <0>        -0.4236
     10 C8         -1.4568   -0.4556   -2.7627 C.ar      1 <0>         0.2144
     11 C9         -2.3080    0.7305   -2.3888 C.3       1 <0>        -0.1479
     12 C10         2.4810   -5.3827   -2.3357 C.2       1 <0>         0.6391
     13 O1          3.6820   -5.2124   -2.4434 O.2       1 <0>        -0.4482
     14 N2          1.9929   -6.6191   -2.1133 N.am      1 <0>        -0.6626
     15 C11         2.2500   -7.7079   -3.0658 C.3       1 <0>         0.1549
     16 H1          2.8795   -8.4635   -2.5958 H         1 <0>         0.0825
     17 C12         0.9121   -8.3341   -3.4716 C.3       1 <0>        -0.1299
     18 C13         0.1529   -8.7649   -2.2145 C.3       1 <0>        -0.1229
     19 C14        -0.1320   -7.5392   -1.3435 C.3       1 <0>        -0.1302
     20 C15         1.1988   -6.9053   -0.9107 C.3       1 <0>         0.1562
     21 H2          1.7444   -7.5968   -0.2686 H         1 <0>         0.0902
     22 C16         0.9270   -5.6037   -0.1538 C.3       1 <0>        -0.1485
     23 C17         2.9552   -7.1505   -4.3038 C.3       1 <0>        -0.1740
     24 N3          1.2097   -4.3623   -4.8162 N.pl3     1 <0>        -0.8632
     25 C18        -0.5387   -2.3906   -5.8789 C.3       1 <0>        -0.1638
     26 H3         -1.5603    0.6768   -5.5489 H         1 <0>         0.0970
     27 H4         -2.4506   -0.8147   -5.9378 H         1 <0>         0.0939
     28 H5         -3.0746    0.2958   -4.6945 H         1 <0>         0.0909
     29 H6         -3.3147    0.3923   -2.1435 H         1 <0>         0.1221
     30 H7         -1.8725    1.2321   -1.5246 H         1 <0>         0.1029
     31 H8         -2.3523    1.4249   -3.2278 H         1 <0>         0.1228
     32 H9          0.3199   -7.6027   -4.0215 H         1 <0>         0.0626
     33 H10         1.0941   -9.2040   -4.1026 H         1 <0>         0.0827
     34 H11        -0.7886   -9.2331   -2.5015 H         1 <0>         0.0723
     35 H12         0.7562   -9.4776   -1.6523 H         1 <0>         0.0709
     36 H13        -0.7143   -6.8152   -1.9134 H         1 <0>         0.0660
     37 H14        -0.6930   -7.8433   -0.4598 H         1 <0>         0.0809
     38 H15        -0.1193   -5.3240   -0.2761 H         1 <0>         0.0868
     39 H16         1.1435   -5.7471    0.9048 H         1 <0>         0.0936
     40 H17         1.5634   -4.8128   -0.5509 H         1 <0>         0.0364
     41 H18         3.9377   -6.7714   -4.0225 H         1 <0>         0.0798
     42 H19         3.0696   -7.9422   -5.0442 H         1 <0>         0.0828
     43 H20         2.3608   -6.3406   -4.7268 H         1 <0>         0.0504
     44 H21         1.3591   -3.8027   -5.5943 H         1 <0>         0.4098
     45 H22         1.2142   -5.3282   -4.9054 H         1 <0>         0.4112
     46 H23         0.2817   -1.8735   -6.3767 H         1 <0>         0.1123
     47 H24        -0.3664   -3.4663   -5.9169 H         1 <0>         0.1033
     48 H25        -1.4759   -2.1547   -6.3829 H         1 <0>         0.1050
     49 H26        -0.8443   -0.7992   -0.9084 H         1 <0>         0.4472
@<TRIPOS>BOND
     1    1    2 1
     2    1   26 1
     3    1   27 1
     4    1   28 1
     5    2   10 ar
     6    2    3 ar
     7    3    4 ar
     8    3   25 1
     9    4    8 ar
    10    4    5 1
    11    5    6 2
    12    5   24 1
    13    6    7 1
    14    6   12 1
    15    7    8 1
    16    8    9 ar
    17    9   10 ar
    18    9   49 1
    19   10   11 1
    20   11   29 1
    21   11   30 1
    22   11   31 1
    23   12   13 2
    24   12   14 am
    25   14   20 1
    26   14   15 1
    27   15   16 1
    28   15   17 1
    29   15   23 1
    30   17   18 1
    31   17   32 1
    32   17   33 1
    33   18   19 1
    34   18   34 1
    35   18   35 1
    36   19   20 1
    37   19   36 1
    38   19   37 1
    39   20   21 1
    40   20   22 1
    41   22   38 1
    42   22   39 1
    43   22   40 1
    44   23   41 1
    45   23   42 1
    46   23   43 1
    47   24   44 1
    48   24   45 1
    49   25   46 1
    50   25   47 1
    51   25   48 1
