@<TRIPOS>MOLECULE
ZINC63713280
   48    51     0     0     0
SMALL
USER_CHARGES

@<TRIPOS>ATOM
      1 C1          0.0581    1.5033    0.0134 C.3       1 <0>        -0.1177
      2 C2          0.0526   -0.0037    0.0028 C.ar      1 <0>        -0.0182
      3 C3          0.6346   -0.6809   -1.0286 C.ar      1 <0>        -0.1412
      4 C4          0.6389   -2.0693   -1.0540 C.ar      1 <0>        -0.0651
      5 C5          0.0515   -2.7918   -0.0319 C.ar      1 <0>         0.1122
      6 C6         -0.5502   -2.1162    1.0340 C.ar      1 <0>         0.1162
      7 C7         -0.5455   -0.7101    1.0556 C.ar      1 <0>        -0.1621
      8 C8         -1.2110   -0.3149    2.2414 C.2       1 <0>         0.0781
      9 N1         -1.5823   -1.3826    2.8864 N.2       1 <0>        -0.2490
     10 N2         -1.2011   -2.5242    2.1706 N.pl3     1 <0>        -0.5052
     11 H1         -1.3601   -3.4432    2.4372 H         1 <0>         0.4395
     12 N3          0.0587   -4.1904   -0.0644 N.am      1 <0>        -0.6613
     13 C9         -0.0401   -4.8376   -1.2424 C.2       1 <0>         0.6104
     14 O1         -0.0537   -4.2082   -2.2826 O.2       1 <0>        -0.5098
     15 C10        -0.1320   -6.3113   -1.2699 C.2       1 <0>        -0.0229
     16 C11        -0.2341   -7.1274   -2.4214 C.2       1 <0>        -0.1750
     17 C12        -0.2906   -8.3987   -1.9601 C.2       1 <0>         0.0560
     18 N4         -0.2256   -8.3385   -0.6126 N.pl3     1 <0>        -0.2603
     19 N5         -0.1286   -7.1171   -0.2266 N.2       1 <0>        -0.2562
     20 C13        -0.2557   -9.4995    0.2804 C.3       1 <0>         0.1664
     21 C14         0.9268  -10.4173   -0.0363 C.3       1 <0>        -0.1673
     22 C15        -0.1609   -9.0283    1.7329 C.3       1 <0>        -0.1466
     23 C16        -1.5645  -10.2655    0.0771 C.3       1 <0>        -0.1672
     24 C17        -0.4052   -9.6483   -2.7946 C.3       1 <0>        -0.1088
     25 C18         0.2861   -9.6522   -4.1595 C.3       1 <0>        -0.1601
     26 C19        -1.2393   -9.5689   -4.0748 C.3       1 <0>        -0.1608
     27 H2          0.9549    1.8597    0.5200 H         1 <0>         0.0760
     28 H3          0.0483    1.8739   -1.0117 H         1 <0>         0.0718
     29 H4         -0.8249    1.8661    0.5394 H         1 <0>         0.0689
     30 H5          1.0970   -0.1309   -1.8349 H         1 <0>         0.1324
     31 H6          1.1044   -2.5887   -1.8786 H         1 <0>         0.1486
     32 H7         -1.3821    0.7033    2.5580 H         1 <0>         0.1948
     33 H8          0.1349   -4.6943    0.7609 H         1 <0>         0.4120
     34 H9         -0.2619   -6.8040   -3.4515 H         1 <0>         0.1608
     35 H10         1.8592   -9.8716    0.1085 H         1 <0>         0.0685
     36 H11         0.9044  -11.2811    0.6281 H         1 <0>         0.0857
     37 H12         0.8592  -10.7530   -1.0711 H         1 <0>         0.0737
     38 H13        -1.0033   -8.3745    1.9585 H         1 <0>         0.0702
     39 H14        -0.1833   -9.8921    2.3973 H         1 <0>         0.0786
     40 H15         0.7715   -8.4826    1.8777 H         1 <0>         0.0709
     41 H16        -1.6321  -10.6012   -0.9577 H         1 <0>         0.0737
     42 H17        -1.5869  -11.1293    0.7415 H         1 <0>         0.0858
     43 H18        -2.4069   -9.6116    0.3027 H         1 <0>         0.0681
     44 H19        -0.4258  -10.5852   -2.2378 H         1 <0>         0.1229
     45 H20         0.8238   -8.7509   -4.4539 H         1 <0>         0.1026
     46 H21         0.7206  -10.5917   -4.5009 H         1 <0>         0.1038
     47 H22        -1.8083  -10.4536   -4.3605 H         1 <0>         0.1037
     48 H23        -1.7052   -8.6127   -4.3134 H         1 <0>         0.1024
@<TRIPOS>BOND
     1    1    2 1
     2    1   27 1
     3    1   28 1
     4    1   29 1
     5    2    7 ar
     6    2    3 ar
     7    3    4 ar
     8    3   30 1
     9    4    5 ar
    10    4   31 1
    11    5    6 ar
    12    5   12 1
    13    6   10 1
    14    6    7 ar
    15    7    8 1
    16    8    9 2
    17    8   32 1
    18    9   10 1
    19   10   11 1
    20   12   13 am
    21   12   33 1
    22   13   14 2
    23   13   15 1
    24   15   19 2
    25   15   16 1
    26   16   17 2
    27   16   34 1
    28   17   18 1
    29   17   24 1
    30   18   19 1
    31   18   20 1
    32   20   21 1
    33   20   22 1
    34   20   23 1
    35   21   35 1
    36   21   36 1
    37   21   37 1
    38   22   38 1
    39   22   39 1
    40   22   40 1
    41   23   41 1
    42   23   42 1
    43   23   43 1
    44   24   26 1
    45   24   25 1
    46   24   44 1
    47   25   26 1
    48   25   45 1
    49   25   46 1
    50   26   47 1
    51   26   48 1
