@<TRIPOS>MOLECULE
ZINC63175729
   42    43     0     0     0
SMALL
USER_CHARGES

@<TRIPOS>ATOM
      1 C1         -0.4939   -3.2151    3.9026 C.3       1 <0>        -0.1480
      2 C2         -1.3156   -2.5799    2.7791 C.3       1 <0>         0.0775
      3 H1         -2.3713   -2.8070    2.9271 H         1 <0>         0.0666
      4 C3         -0.8556   -3.1404    1.4285 C.3       1 <0>         0.0839
      5 N1         -1.5247   -2.3824    0.3593 N.pl3     1 <0>        -1.0017
      6 C4         -1.4647   -0.9131    0.4115 C.3       1 <0>         0.0895
      7 C5         -1.8949   -0.4611    1.8117 C.3       1 <0>         0.0772
      8 H2         -2.9530   -0.6797    1.9557 H         1 <0>         0.0671
      9 O1         -1.1257   -1.1630    2.7911 O.3       1 <0>        -0.3664
     10 C6         -1.6595    1.0436    1.9578 C.3       1 <0>        -0.1478
     11 S1         -2.3212   -3.1600   -0.8668 S.o2      1 <0>         2.7776
     12 O2         -2.5617   -4.4866   -0.4178 O.2       1 <0>        -0.9579
     13 O3         -3.3689   -2.2951   -1.2832 O.2       1 <0>        -0.9546
     14 N2         -1.2680   -3.2748   -2.1395 N.pl3     1 <0>        -1.1452
     15 C7         -0.0519   -4.0817   -2.0135 C.3       1 <0>         0.1277
     16 H3         -0.1729   -4.8173   -1.2183 H         1 <0>         0.1318
     17 C8          1.1571   -3.1720   -1.7122 C.3       1 <0>        -0.1478
     18 C9          2.3234   -3.8164   -2.5019 C.3       1 <0>        -0.1224
     19 C10         1.6344   -4.2849   -3.8076 C.3       1 <0>        -0.1440
     20 C11         0.2510   -4.7903   -3.3454 C.3       1 <0>         0.0204
     21 H4          0.2777   -5.8698   -3.1964 H         1 <0>         0.1590
     22 N3         -0.7705   -4.4446   -4.3429 N.4       1 <0>        -0.6338
     23 H5         -0.8202   -2.8148    4.8624 H         1 <0>         0.0739
     24 H6         -0.6377   -4.2955    3.8917 H         1 <0>         0.0770
     25 H7          0.5617   -2.9876    3.7540 H         1 <0>         0.0680
     26 H8          0.2249   -3.0317    1.3346 H         1 <0>         0.0827
     27 H9         -1.1267   -4.1937    1.3566 H         1 <0>         0.1046
     28 H10        -0.4455   -0.5801    0.2153 H         1 <0>         0.0831
     29 H11        -2.1391   -0.4914   -0.3338 H         1 <0>         0.1005
     30 H12        -2.2441    1.5773    1.2085 H         1 <0>         0.0768
     31 H13        -1.9656    1.3643    2.9535 H         1 <0>         0.0738
     32 H14        -0.6010    1.2613    1.8154 H         1 <0>         0.0679
     33 H15        -1.4564   -2.8076   -2.9685 H         1 <0>         0.4064
     34 H16         0.9698   -2.1587   -2.0674 H         1 <0>         0.0897
     35 H17         1.3753   -3.1688   -0.6443 H         1 <0>         0.0952
     36 H18         3.0979   -3.0800   -2.7165 H         1 <0>         0.0950
     37 H19         2.7364   -4.6653   -1.9570 H         1 <0>         0.0893
     38 H20         1.5243   -3.4513   -4.5012 H         1 <0>         0.0920
     39 H21         2.2010   -5.0938   -4.2689 H         1 <0>         0.1062
     40 H22        -0.7717   -3.4465   -4.4910 H         1 <0>         0.4299
     41 H23        -0.5639   -4.9133   -5.2122 H         1 <0>         0.4417
     42 H24        -1.6774   -4.7364   -4.0107 H         1 <0>         0.4375
@<TRIPOS>BOND
     1    1    2 1
     2    1   23 1
     3    1   24 1
     4    1   25 1
     5    2    3 1
     6    2    9 1
     7    2    4 1
     8    4    5 1
     9    4   26 1
    10    4   27 1
    11    5    6 1
    12    5   11 1
    13    6    7 1
    14    6   28 1
    15    6   29 1
    16    7    8 1
    17    7    9 1
    18    7   10 1
    19   10   30 1
    20   10   31 1
    21   10   32 1
    22   11   12 2
    23   11   13 2
    24   11   14 1
    25   14   15 1
    26   14   33 1
    27   15   16 1
    28   15   20 1
    29   15   17 1
    30   17   18 1
    31   17   34 1
    32   17   35 1
    33   18   19 1
    34   18   36 1
    35   18   37 1
    36   19   20 1
    37   19   38 1
    38   19   39 1
    39   20   21 1
    40   20   22 1
    41   22   40 1
    42   22   41 1
    43   22   42 1
