@<TRIPOS>MOLECULE
ZINC44784799
   38    39     0     0     0
SMALL
USER_CHARGES

@<TRIPOS>ATOM
      1 C1         -0.1040    1.5780   -0.3430 C.3       1 <0>        -0.1146
      2 C2         -0.0825    0.0723   -0.2841 C.ar      1 <0>        -0.0890
      3 C3          0.3336   -0.6553   -1.3841 C.ar      1 <0>        -0.0930
      4 C4          0.3543   -2.0354   -1.3341 C.ar      1 <0>        -0.1180
      5 C5         -0.0430   -2.6930   -0.1775 C.ar      1 <0>         0.1491
      6 C6         -0.4602   -1.9596    0.9265 C.ar      1 <0>        -0.0637
      7 C7         -0.4735   -0.5784    0.8715 C.ar      1 <0>        -0.0902
      8 Cl1        -0.9580   -2.7765    2.3752 Cl        1 <0>        -0.0667
      9 N1         -0.0236   -4.0916   -0.1239 N.am      1 <0>        -0.6640
     10 C8         -0.1220   -4.8109   -1.2594 C.2       1 <0>         0.5338
     11 O1         -0.1885   -4.2466   -2.3309 O.2       1 <0>        -0.4921
     12 C9         -0.1494   -6.3164   -1.1977 C.3       1 <0>        -0.0198
     13 C10         1.0932   -6.8362   -0.4538 C.3       1 <0>        -0.1213
     14 C11         1.8660   -7.7224   -1.4524 C.3       1 <0>        -0.1214
     15 C12         1.4138   -7.2111   -2.8428 C.3       1 <0>        -0.1270
     16 C13        -0.0884   -6.9049   -2.6224 C.3       1 <0>        -0.1015
     17 C14        -1.4019   -6.7814   -0.5004 C.2       1 <0>         0.3743
     18 N2         -2.3074   -7.4247   -1.1598 N.2       1 <0>        -0.3988
     19 O2         -3.4842   -7.8616   -0.5046 O.3       1 <0>        -0.4216
     20 N3         -1.5810   -6.5204    0.8400 N.pl3     1 <0>        -0.8681
     21 H1          0.8592    1.9682   -0.0142 H         1 <0>         0.0745
     22 H2         -0.2956    1.8989   -1.3669 H         1 <0>         0.0709
     23 H3         -0.8910    1.9559    0.3096 H         1 <0>         0.0691
     24 H4          0.6426   -0.1436   -2.2836 H         1 <0>         0.1347
     25 H5          0.6787   -2.6026   -2.1939 H         1 <0>         0.1625
     26 H6         -0.7934   -0.0072    1.7304 H         1 <0>         0.1383
     27 H7          0.0606   -4.5431    0.7305 H         1 <0>         0.4074
     28 H8          1.7161   -5.9995   -0.1374 H         1 <0>         0.0783
     29 H9          0.7908   -7.4254    0.4119 H         1 <0>         0.0842
     30 H10         2.9407   -7.5894   -1.3281 H         1 <0>         0.0755
     31 H11         1.5929   -8.7697   -1.3237 H         1 <0>         0.0743
     32 H12         1.9564   -6.3064   -3.1169 H         1 <0>         0.0716
     33 H13         1.5433   -7.9847   -3.5997 H         1 <0>         0.0783
     34 H14        -0.6772   -7.8202   -2.6826 H         1 <0>         0.0969
     35 H15        -0.4400   -6.1753   -3.3519 H         1 <0>         0.0936
     36 H16        -4.1023   -8.3336   -1.0793 H         1 <0>         0.4031
     37 H17        -0.9265   -5.9919    1.3229 H         1 <0>         0.3878
     38 H18        -2.3617   -6.8651    1.3011 H         1 <0>         0.4126
@<TRIPOS>BOND
     1    1    2 1
     2    1   21 1
     3    1   22 1
     4    1   23 1
     5    2    7 ar
     6    2    3 ar
     7    3    4 ar
     8    3   24 1
     9    4    5 ar
    10    4   25 1
    11    5    6 ar
    12    5    9 1
    13    6    7 ar
    14    6    8 1
    15    7   26 1
    16    9   10 am
    17    9   27 1
    18   10   11 2
    19   10   12 1
    20   12   16 1
    21   12   13 1
    22   12   17 1
    23   13   14 1
    24   13   28 1
    25   13   29 1
    26   14   15 1
    27   14   30 1
    28   14   31 1
    29   15   16 1
    30   15   32 1
    31   15   33 1
    32   16   34 1
    33   16   35 1
    34   17   18 2
    35   17   20 1
    36   18   19 1
    37   19   36 1
    38   20   37 1
    39   20   38 1
