@<TRIPOS>MOLECULE
ZINC11898657
   53    55     0     0     0
SMALL
USER_CHARGES
N-[(2R)-2-(1-methylpyrrol-2-yl)-2-morpholino-ethyl]-N'-(2-nitrophenyl)oxamide
@<TRIPOS>ATOM
      1 C1         -2.9520    1.5366    4.5362 C.3       1 <0>         0.0562
      2 N1         -1.5633    1.9945    4.6251 N.pl3     1 <0>        -0.4328
      3 C2         -0.6557    1.6014    5.5636 C.2       1 <0>         0.0399
      4 C3          0.5060    2.2416    5.3208 C.2       1 <0>        -0.1910
      5 C4          0.3102    3.0553    4.1874 C.2       1 <0>        -0.1483
      6 C5         -0.9637    2.8813    3.7808 C.2       1 <0>        -0.0648
      7 C6         -1.6142    3.5557    2.6005 C.3       1 <0>         0.1075
      8 H1         -2.6744    3.3036    2.5769 H         1 <0>         0.1447
      9 C7         -1.4532    5.0719    2.7269 C.3       1 <0>         0.1028
     10 N2         -2.0115    5.7230    1.5392 N.am      1 <0>        -0.7275
     11 C8         -2.0716    7.0679    1.4735 C.2       1 <0>         0.5211
     12 O1         -1.6633    7.7394    2.3982 O.2       1 <0>        -0.4692
     13 C9         -2.6408    7.7316    0.2627 C.2       1 <0>         0.5162
     14 O2         -3.0492    7.0600   -0.6621 O.2       1 <0>        -0.4962
     15 N3         -2.7009    9.0764    0.1970 N.am      1 <0>        -0.6336
     16 C10        -3.3400    9.6954   -0.8804 C.ar      1 <0>         0.2047
     17 C11        -4.4558    9.1048   -1.4609 C.ar      1 <0>        -0.1236
     18 C12        -5.0877    9.7215   -2.5224 C.ar      1 <0>        -0.0428
     19 C13        -4.6050   10.9206   -3.0148 C.ar      1 <0>        -0.1205
     20 C14        -3.4918   11.5084   -2.4429 C.ar      1 <0>        -0.0331
     21 C15        -2.8579   10.8996   -1.3774 C.ar      1 <0>        -0.0664
     22 N4         -1.6659   11.5294   -0.7662 N.pl3     1 <0>         0.0323
     23 O3         -1.3098   12.6368   -1.1270 O.2       1 <0>        -0.1295
     24 O4         -1.0413   10.9401    0.0976 O.3       1 <0>        -0.1814
     25 C16         0.4086    3.5880    1.2685 C.3       1 <0>        -0.0610
     26 C17         1.0170    3.1372   -0.0622 C.3       1 <0>         0.0386
     27 O5          0.9399    1.7123   -0.1584 O.3       1 <0>        -0.3520
     28 C18        -0.3930    1.2009   -0.0738 C.3       1 <0>         0.0375
     29 C19        -1.0154    1.6311    1.2572 C.3       1 <0>        -0.0372
     30 H2         -2.9909    0.5997    3.9805 H         1 <0>         0.0841
     31 H3         -3.3481    1.3805    5.5397 H         1 <0>         0.1005
     32 H4         -3.5505    2.2889    4.0224 H         1 <0>         0.0837
     33 H5         -0.8374    0.9017    6.3660 H         1 <0>         0.1794
     34 H6          1.4186    2.1481    5.8907 H         1 <0>         0.1531
     35 H7          1.0454    3.6997    3.7284 H         1 <0>         0.1473
     36 H8         -1.9812    5.4206    3.6145 H         1 <0>         0.1266
     37 H9         -0.3951    5.3190    2.8132 H         1 <0>         0.1089
     38 H10        -2.3378    5.1863    0.8001 H         1 <0>         0.4052
     39 H11        -2.3006    9.6147    0.8976 H         1 <0>         0.4381
     40 H12        -4.8308    8.1665   -1.0796 H         1 <0>         0.1556
     41 H13        -5.9575    9.2651   -2.9714 H         1 <0>         0.1531
     42 H14        -5.0986   11.3986   -3.8480 H         1 <0>         0.1566
     43 H15        -3.1173   12.4445   -2.8300 H         1 <0>         0.1645
     44 H16         0.9942    3.1810    2.0928 H         1 <0>         0.1556
     45 H17         0.4133    4.6767    1.3205 H         1 <0>         0.1407
     46 H18         2.0603    3.4492   -0.1096 H         1 <0>         0.1442
     47 H19         0.4643    3.5881   -0.8864 H         1 <0>         0.0805
     48 H20        -0.9873    1.5955   -0.8979 H         1 <0>         0.0810
     49 H21        -0.3695    0.1126   -0.1304 H         1 <0>         0.1423
     50 H22        -2.0504    1.2921    1.3015 H         1 <0>         0.1355
     51 H23        -0.4524    1.1923    2.0810 H         1 <0>         0.1447
     52 N5         -0.9875    3.1066    1.3385 N.4       1 <0>        -0.3934
     53 H24        -1.5148    3.4946    0.5475 H         1 <0>         0.4217
@<TRIPOS>BOND
     1    1    2 1
     2    1   30 1
     3    1   31 1
     4    1   32 1
     5    2    6 1
     6    2    3 1
     7    3    4 2
     8    3   33 1
     9    4    5 1
    10    4   34 1
    11    5    6 2
    12    5   35 1
    13    6    7 1
    14    7    8 1
    15    7    9 1
    16    7   52 1
    17    9   10 1
    18    9   36 1
    19    9   37 1
    20   10   11 am
    21   10   38 1
    22   11   12 2
    23   11   13 1
    24   13   14 2
    25   13   15 am
    26   15   16 1
    27   15   39 1
    28   16   21 ar
    29   16   17 ar
    30   17   18 ar
    31   17   40 1
    32   18   19 ar
    33   18   41 1
    34   19   20 ar
    35   19   42 1
    36   20   21 ar
    37   20   43 1
    38   21   22 1
    39   22   23 2
    40   22   24 1
    41   25   26 1
    42   25   44 1
    43   25   45 1
    44   25   52 1
    45   26   27 1
    46   26   46 1
    47   26   47 1
    48   27   28 1
    49   28   29 1
    50   28   48 1
    51   28   49 1
    52   29   50 1
    53   29   51 1
    54   29   52 1
    55   52   53 1
