@<TRIPOS>MOLECULE
ZINC08525035
   45    47     0     0     0
SMALL
USER_CHARGES
2-(5-fluoro-2-nitro-phenoxy)-N-methyl-N-tetralin-1-yl-acetamide
@<TRIPOS>ATOM
      1 C1         -6.2346    2.2031    0.0745 C.3       1 <0>         0.0697
      2 N1         -6.0594    3.6576    0.0811 N.am      1 <0>        -0.6055
      3 C2         -7.2313    4.5366    0.0976 C.3       1 <0>         0.1850
      4 H1         -6.9013    5.5753    0.1097 H         1 <0>         0.1151
      5 C3         -8.0546    4.2549    1.3528 C.3       1 <0>        -0.1263
      6 C4         -9.3776    5.0225    1.2454 C.3       1 <0>        -0.1178
      7 C5        -10.2249    4.3717    0.1539 C.3       1 <0>        -0.0841
      8 C6         -9.4282    4.2200   -1.1154 C.ar      1 <0>        -0.0642
      9 C7         -8.0533    4.2917   -1.1407 C.ar      1 <0>        -0.0954
     10 C8         -7.3785    4.1360   -2.3444 C.ar      1 <0>        -0.1022
     11 C9         -8.0745    3.9135   -3.5148 C.ar      1 <0>        -0.1244
     12 C10        -9.4549    3.8457   -3.4901 C.ar      1 <0>        -0.1120
     13 C11       -10.1271    3.9985   -2.2949 C.ar      1 <0>        -0.1227
     14 C12        -4.8200    4.1870    0.0720 C.2       1 <0>         0.5157
     15 O1         -4.6749    5.3911    0.0775 O.2       1 <0>        -0.4932
     16 C13        -3.6145    3.2829    0.0551 C.3       1 <0>         0.0307
     17 O2         -2.4251    4.0749    0.0480 O.3       1 <0>        -0.2483
     18 C14        -1.2405    3.4090    0.0327 C.ar      1 <0>         0.2265
     19 C15        -1.2236    2.0221    0.0188 C.ar      1 <0>        -0.2576
     20 C16        -0.0162    1.3468    0.0094 C.ar      1 <0>         0.1996
     21 C17         1.1738    2.0556    0.0019 C.ar      1 <0>        -0.1900
     22 C18         1.1572    3.4375    0.0095 C.ar      1 <0>         0.0147
     23 C19        -0.0466    4.1156    0.0251 C.ar      1 <0>        -0.0910
     24 N2         -0.0624    5.5955    0.0332 N.pl3     1 <0>         0.0306
     25 O3          0.9858    6.2158    0.0261 O.2       1 <0>        -0.1751
     26 O4         -1.1237    6.1932    0.0469 O.3       1 <0>        -0.1174
     27 F1          0.0021   -0.0041    0.0020 F         1 <0>        -0.1143
     28 H2         -6.2681    1.8365    1.1004 H         1 <0>         0.0642
     29 H3         -7.1667    1.9518   -0.4317 H         1 <0>         0.0812
     30 H4         -5.3996    1.7389   -0.4502 H         1 <0>         0.0699
     31 H5         -8.2553    3.1861    1.4281 H         1 <0>         0.0715
     32 H6         -7.5065    4.5884    2.2339 H         1 <0>         0.0740
     33 H7         -9.9068    4.9769    2.1972 H         1 <0>         0.0757
     34 H8         -9.1787    6.0620    0.9848 H         1 <0>         0.0707
     35 H9        -10.5531    3.3887    0.4919 H         1 <0>         0.0783
     36 H10       -11.0982    4.9938   -0.0420 H         1 <0>         0.0784
     37 H11        -6.3000    4.1892   -2.3645 H         1 <0>         0.1152
     38 H12        -7.5426    3.7923   -4.4469 H         1 <0>         0.1219
     39 H13       -10.0053    3.6733   -4.4032 H         1 <0>         0.1232
     40 H14       -11.2056    3.9451   -2.2764 H         1 <0>         0.1230
     41 H15        -3.6408    2.6589   -0.8382 H         1 <0>         0.1026
     42 H16        -3.6234    2.6487    0.9416 H         1 <0>         0.1036
     43 H17        -2.1519    1.4700    0.0199 H         1 <0>         0.1633
     44 H18         2.1159    1.5276   -0.0096 H         1 <0>         0.1641
     45 H19         2.0863    3.9881    0.0036 H         1 <0>         0.1729
@<TRIPOS>BOND
     1    1    2 1
     2    1   28 1
     3    1   29 1
     4    1   30 1
     5    2    3 1
     6    2   14 am
     7    3    4 1
     8    3    9 1
     9    3    5 1
    10    5    6 1
    11    5   31 1
    12    5   32 1
    13    6    7 1
    14    6   33 1
    15    6   34 1
    16    7    8 1
    17    7   35 1
    18    7   36 1
    19    8   13 ar
    20    8    9 ar
    21    9   10 ar
    22   10   11 ar
    23   10   37 1
    24   11   12 ar
    25   11   38 1
    26   12   13 ar
    27   12   39 1
    28   13   40 1
    29   14   15 2
    30   14   16 1
    31   16   17 1
    32   16   41 1
    33   16   42 1
    34   17   18 1
    35   18   23 ar
    36   18   19 ar
    37   19   20 ar
    38   19   43 1
    39   20   21 ar
    40   20   27 1
    41   21   22 ar
    42   21   44 1
    43   22   23 ar
    44   22   45 1
    45   23   24 1
    46   24   25 2
    47   24   26 1
