@<TRIPOS>MOLECULE
ZINC62540621
   37    37     0     0     0
SMALL
USER_CHARGES

@<TRIPOS>ATOM
      1 C1         -0.0184    1.5028    0.0103 C.3       1 <0>        -0.1204
      2 C2          0.0021   -0.0041    0.0020 C.ar      1 <0>        -0.0505
      3 C3          0.0058   -0.6889   -1.1980 C.ar      1 <0>        -0.0786
      4 C4          0.0246   -2.0712   -1.2062 C.ar      1 <0>        -0.0717
      5 C5          0.0397   -2.7720   -0.0142 C.ar      1 <0>        -0.0178
      6 C6          0.0360   -2.0920    1.1881 C.ar      1 <0>        -0.1487
      7 C7          0.0230   -0.7046    1.1991 C.ar      1 <0>         0.1193
      8 O1          0.0245   -0.0332    2.3806 O.3       1 <0>        -0.2899
      9 C8          0.0466   -0.8196    3.5736 C.3       1 <0>         0.0423
     10 C9          0.0450    0.1040    4.7934 C.3       1 <0>        -0.1434
     11 C10         0.0686   -0.7379    6.0707 C.3       1 <0>         0.0082
     12 H1         -0.7636   -1.4417    6.0573 H         1 <0>         0.1694
     13 C11        -0.0567    0.1655    7.2703 C.2       1 <0>         0.5154
     14 O2          0.9309    0.4736    7.9032 O.2       1 <0>        -0.5183
     15 N1         -1.2663    0.6312    7.6397 N.am      1 <0>        -0.8210
     16 N2          1.3350   -1.4785    6.1456 N.4       1 <0>        -0.4975
     17 C12         1.3089   -2.3769    7.3076 C.3       1 <0>        -0.0556
     18 N3          0.0592   -4.2518   -0.0266 N.pl3     1 <0>         0.0304
     19 O3          0.0620   -4.8475   -1.0787 O.2       1 <0>        -0.1375
     20 O4          0.0724   -4.8650    1.0152 O.3       1 <0>        -0.1633
     21 H2          1.0042    1.8801    0.0026 H         1 <0>         0.0858
     22 H3         -0.5455    1.8639   -0.8728 H         1 <0>         0.0826
     23 H4         -0.5286    1.8543    0.9071 H         1 <0>         0.0795
     24 H5         -0.0063   -0.1439   -2.1303 H         1 <0>         0.1621
     25 H6          0.0271   -2.6047   -2.1453 H         1 <0>         0.1624
     26 H7          0.0474   -2.6398    2.1188 H         1 <0>         0.1522
     27 H8         -0.8343   -1.4609    3.6023 H         1 <0>         0.0864
     28 H9          0.9454   -1.4361    3.5858 H         1 <0>         0.0621
     29 H10         0.9259    0.7454    4.7646 H         1 <0>         0.1143
     30 H11        -0.8538    0.7205    4.7811 H         1 <0>         0.1327
     31 H12        -2.0562    0.3848    7.1335 H         1 <0>         0.4144
     32 H13        -1.3470    1.2127    8.4119 H         1 <0>         0.4272
     33 H14         1.4577   -2.0211    5.3038 H         1 <0>         0.4336
     34 H15         2.2486   -2.9264    7.3633 H         1 <0>         0.1370
     35 H16         1.1764   -1.7908    8.2171 H         1 <0>         0.1295
     36 H17         0.4824   -3.0800    7.2049 H         1 <0>         0.1275
     37 H18         2.1001   -0.8277    6.2408 H         1 <0>         0.4400
@<TRIPOS>BOND
     1    1    2 1
     2    1   21 1
     3    1   22 1
     4    1   23 1
     5    2    7 ar
     6    2    3 ar
     7    3    4 ar
     8    3   24 1
     9    4    5 ar
    10    4   25 1
    11    5    6 ar
    12    5   18 1
    13    6    7 ar
    14    6   26 1
    15    7    8 1
    16    8    9 1
    17    9   10 1
    18    9   27 1
    19    9   28 1
    20   10   11 1
    21   10   29 1
    22   10   30 1
    23   11   12 1
    24   11   13 1
    25   11   16 1
    26   13   14 2
    27   13   15 am
    28   15   31 1
    29   15   32 1
    30   16   17 1
    31   16   33 1
    32   16   37 1
    33   17   34 1
    34   17   35 1
    35   17   36 1
    36   18   19 2
    37   18   20 1
