@<TRIPOS>MOLECULE
ZINC41719352
   39    41     0     0     0
SMALL
USER_CHARGES

@<TRIPOS>ATOM
      1 C1          0.9295   -1.2637    1.2166 C.3       1 <0>        -0.1611
      2 C2          0.0345   -1.7049    0.0567 C.3       1 <0>         0.1548
      3 H1          0.5632   -1.5605   -0.8855 H         1 <0>         0.0813
      4 C3         -0.3208   -3.1840    0.2207 C.3       1 <0>         0.0694
      5 H2         -1.0384   -3.4868   -0.5417 H         1 <0>         0.0580
      6 C4          0.9566   -4.0567    0.1338 C.3       1 <0>        -0.1551
      7 C5          0.5112   -5.3115    0.9334 C.3       1 <0>        -0.1545
      8 C6         -0.4114   -4.7028    2.0111 C.3       1 <0>         0.0452
      9 O1         -0.8545   -3.4261    1.5321 O.3       1 <0>        -0.3306
     10 N1         -1.1929   -0.9051    0.0554 N.pl3     1 <0>        -0.7072
     11 C7         -2.0366   -0.9420   -1.0301 C.ar      1 <0>         0.3620
     12 C8         -1.6075   -0.5029   -2.3063 C.ar      1 <0>        -0.1176
     13 C9         -0.3086   -0.0162   -2.5074 C.ar      1 <0>        -0.0559
     14 C10         0.0717    0.3980   -3.7494 C.ar      1 <0>        -0.1217
     15 C11        -0.8156    0.3437   -4.8202 C.ar      1 <0>        -0.0457
     16 C12        -2.0849   -0.1242   -4.6573 C.ar      1 <0>        -0.1491
     17 C13        -2.5116   -0.5600   -3.3928 C.ar      1 <0>         0.1496
     18 N2         -3.7568   -1.0248   -3.2126 N.ar      1 <0>        -0.4958
     19 C14        -4.1815   -1.4376   -2.0470 C.ar      1 <0>         0.2305
     20 C15        -3.3516   -1.4220   -0.9120 C.ar      1 <0>        -0.2203
     21 C16        -3.8548   -1.8978    0.3821 C.2       1 <0>         0.5255
     22 O2         -4.9662   -2.4048    0.4577 O.co2     1 <0>        -0.6744
     23 O3         -3.1630   -1.7875    1.3858 O.co2     1 <0>        -0.6242
     24 H3          1.8853   -1.7840    1.1562 H         1 <0>         0.0742
     25 H4          1.0969   -0.1882    1.1576 H         1 <0>         0.0635
     26 H5          0.4438   -1.5045    2.1622 H         1 <0>         0.0839
     27 H6          1.1886   -4.3117   -0.9002 H         1 <0>         0.0788
     28 H7          1.8021   -3.5644    0.6143 H         1 <0>         0.0846
     29 H8         -0.0403   -6.0022    0.2956 H         1 <0>         0.0739
     30 H9          1.3690   -5.8047    1.3906 H         1 <0>         0.0816
     31 H10        -1.2704   -5.3539    2.1731 H         1 <0>         0.0666
     32 H11         0.1405   -4.5781    2.9428 H         1 <0>         0.0672
     33 H12        -1.4106   -0.3495    0.8202 H         1 <0>         0.4276
     34 H13         0.3873    0.0307   -1.6828 H         1 <0>         0.1507
     35 H14         1.0726    0.7730   -3.9039 H         1 <0>         0.1439
     36 H15        -0.4931    0.6778   -5.7953 H         1 <0>         0.1460
     37 H16        -2.7611   -0.1595   -5.4987 H         1 <0>         0.1486
     38 H17        -5.1936   -1.8030   -1.9544 H         1 <0>         0.2094
     39 H18        -4.3613   -1.0554   -3.9706 H         1 <0>         0.4364
@<TRIPOS>BOND
     1    1    2 1
     2    1   24 1
     3    1   25 1
     4    1   26 1
     5    2    3 1
     6    2    4 1
     7    2   10 1
     8    4    5 1
     9    4    9 1
    10    4    6 1
    11    6    7 1
    12    6   27 1
    13    6   28 1
    14    7    8 1
    15    7   29 1
    16    7   30 1
    17    8    9 1
    18    8   31 1
    19    8   32 1
    20   10   11 1
    21   10   33 1
    22   11   20 ar
    23   11   12 ar
    24   12   17 ar
    25   12   13 ar
    26   13   14 ar
    27   13   34 1
    28   14   15 ar
    29   14   35 1
    30   15   16 ar
    31   15   36 1
    32   16   17 ar
    33   16   37 1
    34   17   18 ar
    35   18   19 ar
    36   18   39 1
    37   19   20 ar
    38   19   38 1
    39   20   21 1
    40   21   22 2
    41   21   23 1
