@<TRIPOS>MOLECULE
ZINC40151154
   46    48     0     0     0
SMALL
USER_CHARGES

@<TRIPOS>ATOM
      1 C1          5.8982   -3.9407   -3.6161 C.ar      1 <0>        -0.0200
      2 C2          4.7807   -4.3026   -4.3861 C.ar      1 <0>         0.1369
      3 C3          3.5104   -4.1858   -3.9331 C.ar      1 <0>        -0.2045
      4 C4          3.2564   -3.6836   -2.6371 C.ar      1 <0>         0.3774
      5 N1          2.0137   -3.5721   -2.1995 N.am      1 <0>        -0.5185
      6 C5          1.7404   -3.1015   -0.9807 C.2       1 <0>         0.4937
      7 O1          0.5903   -3.0085   -0.6004 O.2       1 <0>        -0.3037
      8 C6          2.8810   -2.6864   -0.0797 C.3       1 <0>         0.0585
      9 H1          2.7294   -1.6407    0.1880 H         1 <0>         0.2010
     10 N2          4.2518   -2.8230   -0.5964 N.pl3     1 <0>        -0.3911
     11 C7          4.4179   -3.2930   -1.7989 C.ar      1 <0>         0.3404
     12 C8          5.7683   -3.4498   -2.3640 C.ar      1 <0>        -0.1083
     13 C9          2.7851   -3.4978    1.1865 C.2       1 <0>        -0.0532
     14 N3          2.1810   -3.0198    2.2090 N.2       1 <0>        -0.0777
     15 N4          1.5025   -1.7977    2.1137 N.pl3     1 <0>        -0.5420
     16 C10         0.7614   -1.3243    3.1982 C.ar      1 <0>         0.1726
     17 C11         0.7003   -2.0613    4.3748 C.ar      1 <0>        -0.1299
     18 C12        -0.0335   -1.5902    5.4454 C.ar      1 <0>        -0.0494
     19 C13        -0.7076   -0.3860    5.3477 C.ar      1 <0>        -0.1125
     20 C14        -0.6489    0.3502    4.1778 C.ar      1 <0>        -0.0458
     21 C15         0.0878   -0.1123    3.1054 C.ar      1 <0>        -0.1462
     22 I1         -1.8202    0.3239    6.9747 I         1 <0>        -0.0108
     23 C16         3.4005   -4.8720    1.2493 C.3       1 <0>         0.1351
     24 H2          3.6222   -5.1239    2.2863 H         1 <0>         0.1285
     25 C17         2.4204   -5.8964    0.6740 C.3       1 <0>         0.1237
     26 H3          2.1987   -5.6446   -0.3631 H         1 <0>         0.0829
     27 C18         3.0451   -7.2916    0.7377 C.3       1 <0>         0.0463
     28 O2          2.1801   -8.2306    0.0957 O.3       1 <0>        -0.5643
     29 O3          1.2121   -5.8803    1.4368 O.3       1 <0>        -0.5274
     30 O4          4.6087   -4.8882    0.4864 O.3       1 <0>        -0.5671
     31 H4          6.8867   -4.0621   -4.0339 H         1 <0>         0.2110
     32 H5          4.9416   -4.6898   -5.3814 H         1 <0>         0.2103
     33 H6          2.6858   -4.4779   -4.5665 H         1 <0>         0.2138
     34 H7          6.6401   -3.1776   -1.7876 H         1 <0>         0.2169
     35 H8          1.5476   -1.2805    1.2944 H         1 <0>         0.3912
     36 H9          1.2260   -3.0016    4.4515 H         1 <0>         0.1418
     37 H10        -0.0817   -2.1627    6.3599 H         1 <0>         0.1435
     38 H11        -1.1765    1.2897    4.1047 H         1 <0>         0.1448
     39 H12         0.1369    0.4650    2.1940 H         1 <0>         0.1345
     40 H13         4.0101   -7.2811    0.2309 H         1 <0>         0.0668
     41 H14         3.1850   -7.5799    1.7795 H         1 <0>         0.0641
     42 H15         2.5137   -9.1382    0.0983 H         1 <0>         0.3981
     43 H16         1.3342   -6.0958    2.3716 H         1 <0>         0.3945
     44 H17         5.3067   -4.3219    0.8431 H         1 <0>         0.3906
     45 H18         1.2825   -3.8385   -2.7787 H         1 <0>         0.4732
     46 H19         5.0143   -2.5690   -0.0533 H         1 <0>         0.4802
@<TRIPOS>BOND
     1    1   12 ar
     2    1    2 ar
     3    1   31 1
     4    2    3 ar
     5    2   32 1
     6    3    4 ar
     7    3   33 1
     8    4   11 ar
     9    4    5 2
    10    5    6 am
    11    5   45 1
    12    6    7 2
    13    6    8 1
    14    8    9 1
    15    8   10 1
    16    8   13 1
    17   10   11 2
    18   10   46 1
    19   11   12 ar
    20   12   34 1
    21   13   14 2
    22   13   23 1
    23   14   15 1
    24   15   16 1
    25   15   35 1
    26   16   21 ar
    27   16   17 ar
    28   17   18 ar
    29   17   36 1
    30   18   19 ar
    31   18   37 1
    32   19   20 ar
    33   19   22 1
    34   20   21 ar
    35   20   38 1
    36   21   39 1
    37   23   24 1
    38   23   25 1
    39   23   30 1
    40   25   26 1
    41   25   27 1
    42   25   29 1
    43   27   28 1
    44   27   40 1
    45   27   41 1
    46   28   42 1
    47   29   43 1
    48   30   44 1
