@<TRIPOS>MOLECULE
ZINC40923658
   43    46     0     0     0
SMALL
USER_CHARGES

@<TRIPOS>ATOM
      1 C1         -0.0187    1.5258    0.0104 C.3       1 <0>        -0.1501
      2 C2          0.0021   -0.0041    0.0020 C.3       1 <0>        -0.1234
      3 C3          0.7182   -0.4975   -1.2568 C.3       1 <0>         0.0570
      4 O1          0.7376   -1.9263   -1.2646 O.3       1 <0>        -0.2976
      5 C4          1.3414   -2.5294   -2.3225 C.ar      1 <0>         0.1924
      6 C5          1.9085   -1.7614   -3.3292 C.ar      1 <0>        -0.2055
      7 C6          2.5216   -2.3762   -4.4034 C.ar      1 <0>        -0.0330
      8 C7          2.5704   -3.7571   -4.4759 C.ar      1 <0>        -0.1339
      9 C8          2.0052   -4.5247   -3.4736 C.ar      1 <0>        -0.0296
     10 C9          1.3964   -3.9135   -2.3943 C.ar      1 <0>        -0.1364
     11 C10         0.7871   -4.7502   -1.2989 C.3       1 <0>         0.2771
     12 H1          0.3535   -4.0959   -0.5426 H         1 <0>         0.1320
     13 C11         1.8612   -5.6078   -0.6653 C.2       1 <0>        -0.3066
     14 C12         1.9402   -6.9378   -0.8832 C.2       1 <0>         0.2466
     15 C13         3.0234   -7.7676   -0.2351 C.3       1 <0>        -0.0980
     16 C14         4.2785   -6.9151   -0.0400 C.3       1 <0>        -0.1132
     17 C15         3.9109   -5.7076    0.8292 C.3       1 <0>        -0.1654
     18 C16         2.7875   -4.9570    0.1700 C.2       1 <0>         0.4081
     19 O2          2.6772   -3.7622    0.3626 O.2       1 <0>        -0.4528
     20 N1          1.0438   -7.5954   -1.6922 N.pl3     1 <0>        -0.6044
     21 C17        -0.1200   -6.9335   -2.0445 C.2       1 <0>         0.4538
     22 N2         -0.2549   -5.5964   -1.8603 N.pl3     1 <0>        -0.3834
     23 N3         -1.5361   -5.2879   -2.3135 N.2       1 <0>        -0.0527
     24 N4         -2.0579   -6.3984   -2.7248 N.2       1 <0>        -0.0227
     25 N5         -1.2301   -7.3668   -2.5692 N.2       1 <0>        -0.3308
     26 Br1         3.4104   -4.5962   -5.9477 Br        1 <0>        -0.0441
     27 H2          1.0039    1.9031    0.0027 H         1 <0>         0.0581
     28 H3         -0.5459    1.8868   -0.8726 H         1 <0>         0.0579
     29 H4         -0.5289    1.8773    0.9072 H         1 <0>         0.0662
     30 H5          0.5293   -0.3651    0.8851 H         1 <0>         0.0765
     31 H6         -1.0205   -0.3814    0.0098 H         1 <0>         0.0745
     32 H7          0.1910   -0.1364   -2.1398 H         1 <0>         0.0653
     33 H8          1.7408   -0.1202   -1.2645 H         1 <0>         0.0666
     34 H9          1.8704   -0.6835   -3.2731 H         1 <0>         0.1435
     35 H10         2.9629   -1.7788   -5.1874 H         1 <0>         0.1405
     36 H11         2.0440   -5.6024   -3.5322 H         1 <0>         0.1268
     37 H12         2.6747   -8.1267    0.7332 H         1 <0>         0.1120
     38 H13         3.2589   -8.6191   -0.8736 H         1 <0>         0.1008
     39 H14         5.0492   -7.5043    0.4570 H         1 <0>         0.0946
     40 H15         4.6443   -6.5730   -1.0081 H         1 <0>         0.0794
     41 H16         3.5928   -6.0500    1.8139 H         1 <0>         0.1053
     42 H17         4.7769   -5.0536    0.9305 H         1 <0>         0.1032
     43 H18         1.2212   -8.4958   -2.0062 H         1 <0>         0.4453
@<TRIPOS>BOND
     1    1    2 1
     2    1   27 1
     3    1   28 1
     4    1   29 1
     5    2    3 1
     6    2   30 1
     7    2   31 1
     8    3    4 1
     9    3   32 1
    10    3   33 1
    11    4    5 1
    12    5   10 ar
    13    5    6 ar
    14    6    7 ar
    15    6   34 1
    16    7    8 ar
    17    7   35 1
    18    8    9 ar
    19    8   26 1
    20    9   10 ar
    21    9   36 1
    22   10   11 1
    23   11   12 1
    24   11   22 1
    25   11   13 1
    26   13   18 1
    27   13   14 2
    28   14   15 1
    29   14   20 1
    30   15   16 1
    31   15   37 1
    32   15   38 1
    33   16   17 1
    34   16   39 1
    35   16   40 1
    36   17   18 1
    37   17   41 1
    38   17   42 1
    39   18   19 2
    40   20   21 1
    41   20   43 1
    42   21   25 2
    43   21   22 1
    44   22   23 1
    45   23   24 2
    46   24   25 1
