@<TRIPOS>MOLECULE
ZINC20551467
   45    48     0     0     0
SMALL
USER_CHARGES
N,N-dimethyl-4-[6-[(1R)-1-phenoxyethyl]-[1,2,4]triazolo[5,4-b][1,3,4]thiadiazol-3-yl]aniline
@<TRIPOS>ATOM
      1 C1          0.1974    1.4994   -0.1390 C.3       1 <0>        -0.1800
      2 C2          0.0003   -0.0114    0.0001 C.3       1 <0>         0.1825
      3 H1          0.4278   -0.5576   -0.8536 H         1 <0>         0.1219
      4 C3         -1.4693   -0.3157    0.1370 C.2       1 <0>         0.1385
      5 N1         -2.2848   -0.8157   -0.7428 N.2       1 <0>        -0.2438
      6 N2         -3.6236   -1.0342   -0.4471 N.pl3     1 <0>        -0.3527
      7 C4         -4.7772   -1.5185   -1.0473 C.2       1 <0>         0.3082
      8 N3         -5.7481   -1.4459   -0.1657 N.2       1 <0>        -0.2550
      9 N4         -5.3018   -0.9567    0.9385 N.2       1 <0>        -0.2156
     10 C5         -4.0343   -0.6944    0.8188 C.2       1 <0>         0.0975
     11 S1         -2.5349   -0.0889    1.5523 S.3       1 <0>         0.1680
     12 C6         -4.8928   -2.0251   -2.4306 C.ar      1 <0>        -0.1019
     13 C7         -3.8845   -1.7596   -3.3595 C.ar      1 <0>        -0.0331
     14 C8         -3.9928   -2.2381   -4.6475 C.ar      1 <0>        -0.1974
     15 C9         -5.1097   -2.9749   -5.0253 C.ar      1 <0>         0.2382
     16 C10        -6.1180   -3.2361   -4.1044 C.ar      1 <0>        -0.1975
     17 C11        -6.0132   -2.7655   -2.8134 C.ar      1 <0>        -0.0156
     18 N5         -5.2191   -3.4532   -6.3326 N.pl3     1 <0>        -0.6307
     19 C12        -6.3954   -4.2294   -6.7326 C.3       1 <0>         0.0873
     20 C13        -4.1575   -3.1789   -7.3042 C.3       1 <0>         0.0879
     21 O1          0.6932   -0.4774    1.1597 O.3       1 <0>        -0.3079
     22 C14         2.0139   -0.7639    1.0157 C.ar      1 <0>         0.1265
     23 C15         2.6549   -0.5009   -0.1862 C.ar      1 <0>        -0.2097
     24 C16         3.9986   -0.7882   -0.3283 C.ar      1 <0>        -0.0783
     25 C17         4.7022   -1.3470    0.7226 C.ar      1 <0>        -0.1512
     26 C18         4.0643   -1.6154    1.9196 C.ar      1 <0>        -0.0786
     27 C19         2.7219   -1.3251    2.0685 C.ar      1 <0>        -0.1435
     28 H2          1.2701    1.7215   -0.2389 H         1 <0>         0.0928
     29 H3         -0.2001    2.0047    0.7535 H         1 <0>         0.0845
     30 H4         -0.3361    1.8581   -1.0316 H         1 <0>         0.0882
     31 H5         -3.0186   -1.1838   -3.0678 H         1 <0>         0.1293
     32 H6         -3.2111   -2.0372   -5.3651 H         1 <0>         0.1290
     33 H7         -6.9843   -3.8088   -4.4011 H         1 <0>         0.1322
     34 H8         -6.7968   -2.9688   -2.0986 H         1 <0>         0.1382
     35 H9         -6.3028   -4.5166   -7.7904 H         1 <0>         0.0772
     36 H10        -7.3008   -3.6197   -6.5961 H         1 <0>         0.0592
     37 H11        -6.4658   -5.1347   -6.1117 H         1 <0>         0.0588
     38 H12        -4.4195   -3.6326   -8.2714 H         1 <0>         0.0776
     39 H13        -3.2106   -3.6066   -6.9431 H         1 <0>         0.0577
     40 H14        -4.0454   -2.0916   -7.4275 H         1 <0>         0.0579
     41 H15         2.1048   -0.0682   -1.0087 H         1 <0>         0.1318
     42 H16         4.4990   -0.5801   -1.2625 H         1 <0>         0.1282
     43 H17         5.7517   -1.5747    0.6082 H         1 <0>         0.1266
     44 H18         4.6159   -2.0526    2.7388 H         1 <0>         0.1327
     45 H19         2.2240   -1.5353    3.0036 H         1 <0>         0.1340
@<TRIPOS>BOND
     1    1    2 1
     2    1   28 1
     3    1   29 1
     4    1   30 1
     5    2    3 1
     6    2    4 1
     7    2   21 1
     8    4   11 1
     9    4    5 2
    10    5    6 1
    11    6   10 1
    12    6    7 1
    13    7    8 2
    14    7   12 1
    15    8    9 1
    16    9   10 2
    17   10   11 1
    18   12   17 ar
    19   12   13 ar
    20   13   14 ar
    21   13   31 1
    22   14   15 ar
    23   14   32 1
    24   15   16 ar
    25   15   18 1
    26   16   17 ar
    27   16   33 1
    28   17   34 1
    29   18   19 1
    30   18   20 1
    31   19   35 1
    32   19   36 1
    33   19   37 1
    34   20   38 1
    35   20   39 1
    36   20   40 1
    37   21   22 1
    38   22   27 ar
    39   22   23 ar
    40   23   24 ar
    41   23   41 1
    42   24   25 ar
    43   24   42 1
    44   25   26 ar
    45   25   43 1
    46   26   27 ar
    47   26   44 1
    48   27   45 1
