@<TRIPOS>MOLECULE
ZINC03518267
   37    39     0     0     0
SMALL
USER_CHARGES

@<TRIPOS>ATOM
      1 C1         -0.0184    1.5028    0.0103 C.3       1 <0>        -0.1013
      2 C2          0.0021   -0.0041    0.0020 C.2       1 <0>        -0.0521
      3 C3          0.0087   -0.8768   -1.1711 C.ar      1 <0>        -0.1500
      4 C4         -0.0008   -0.6542   -2.5504 C.ar      1 <0>        -0.0524
      5 C5          0.0094   -1.7177   -3.4079 C.ar      1 <0>        -0.1388
      6 C6          0.0288   -3.0166   -2.9177 C.ar      1 <0>        -0.0734
      7 C7          0.0384   -3.2574   -1.5610 C.ar      1 <0>        -0.1130
      8 C8          0.0288   -2.1914   -0.6687 C.ar      1 <0>         0.0820
      9 O1          0.0337   -2.1137    0.6762 O.3       1 <0>        -0.1692
     10 C9          0.0240   -0.8269    1.0833 C.2       1 <0>        -0.0258
     11 C10         0.0318   -0.3834    2.4827 C.2       1 <0>         0.5546
     12 O2          0.0182    0.8039    2.7442 O.2       1 <0>        -0.4700
     13 O3          0.0540   -1.2928    3.4783 O.3       1 <0>        -0.3238
     14 C11         0.0604   -0.7903    4.8160 C.3       1 <0>         0.0574
     15 C12         0.0857   -1.9436    5.7857 C.2       1 <0>         0.5309
     16 O4          0.0972   -3.0831    5.3721 O.2       1 <0>        -0.4677
     17 N1          0.0956   -1.7082    7.1127 N.am      1 <0>        -0.5787
     18 C13         0.1259   -2.7564    8.1395 C.3       1 <0>         0.0923
     19 C14         0.5626   -2.0467    9.4402 C.3       1 <0>        -0.1317
     20 C15         0.1073   -0.5931    9.1744 C.3       1 <0>        -0.1540
     21 C16         0.0848   -0.4831    7.6657 C.2       1 <0>         0.5188
     22 O5          0.0583    0.5583    7.0458 O.2       1 <0>        -0.4846
     23 H1          1.0042    1.8801    0.0026 H         1 <0>         0.0849
     24 H2         -0.5455    1.8639   -0.8728 H         1 <0>         0.0770
     25 H3         -0.5286    1.8543    0.9071 H         1 <0>         0.0922
     26 H4         -0.0165    0.3541   -2.9370 H         1 <0>         0.1332
     27 H5          0.0021   -1.5469   -4.4743 H         1 <0>         0.1353
     28 H6          0.0359   -3.8475   -3.6076 H         1 <0>         0.1410
     29 H7          0.0531   -4.2722   -1.1917 H         1 <0>         0.1389
     30 H8          0.9435   -0.1695    4.9667 H         1 <0>         0.1156
     31 H9         -0.8362   -0.1937    4.9843 H         1 <0>         0.1158
     32 H10        -0.8654   -3.1928    8.2624 H         1 <0>         0.0917
     33 H11         0.8475   -3.5277    7.8700 H         1 <0>         0.0979
     34 H12         0.0471   -2.4650   10.3048 H         1 <0>         0.1032
     35 H13         1.6436   -2.0995    9.5694 H         1 <0>         0.0902
     36 H14        -0.8867   -0.4229    9.5880 H         1 <0>         0.1184
     37 H15         0.8227    0.1136    9.5950 H         1 <0>         0.1155
@<TRIPOS>BOND
     1    1    2 1
     2    1   23 1
     3    1   24 1
     4    1   25 1
     5    2   10 2
     6    2    3 1
     7    3    8 ar
     8    3    4 ar
     9    4    5 ar
    10    4   26 1
    11    5    6 ar
    12    5   27 1
    13    6    7 ar
    14    6   28 1
    15    7    8 ar
    16    7   29 1
    17    8    9 1
    18    9   10 1
    19   10   11 1
    20   11   12 2
    21   11   13 1
    22   13   14 1
    23   14   15 1
    24   14   30 1
    25   14   31 1
    26   15   16 2
    27   15   17 am
    28   17   21 am
    29   17   18 1
    30   18   19 1
    31   18   32 1
    32   18   33 1
    33   19   20 1
    34   19   34 1
    35   19   35 1
    36   20   21 1
    37   20   36 1
    38   20   37 1
    39   21   22 2
