@<TRIPOS>MOLECULE
ZINC04951834
   53    55     0     0     0
SMALL
USER_CHARGES
N-(2-hydroxy-3-morpholino-propyl)-N-(2-nitrophenyl)-benzenesulfonamide
@<TRIPOS>ATOM
      1 C1         -0.2897    0.9106    0.6589 C.ar      1 <0>        -0.0564
      2 C2          0.8014    1.7264    0.4249 C.ar      1 <0>        -0.1302
      3 C3          2.0581    1.1720    0.2693 C.ar      1 <0>        -0.0166
      4 C4          2.2239   -0.1981    0.3485 C.ar      1 <0>        -0.6698
      5 C5          1.1328   -1.0138    0.5829 C.ar      1 <0>        -0.0315
      6 C6         -0.1240   -0.4595    0.7381 C.ar      1 <0>        -0.1330
      7 S1          3.8257   -0.9047    0.1501 S.o2      1 <0>         2.6874
      8 O1          4.7579    0.0707    0.5960 O.2       1 <0>        -0.9363
      9 O2          3.7651   -2.2109    0.7064 O.2       1 <0>        -0.9289
     10 N1          4.0796   -1.0937   -1.4753 N.pl3     1 <0>        -0.9409
     11 C7          3.6536   -2.3252   -2.1449 C.3       1 <0>         0.0927
     12 C8          2.4909   -2.0157   -3.0900 C.3       1 <0>         0.0529
     13 H1          2.8107   -1.2842   -3.8321 H         1 <0>         0.1301
     14 C9          2.0519   -3.3001   -3.7961 C.3       1 <0>        -0.0407
     15 C10         0.2679   -4.1820   -5.1769 C.3       1 <0>        -0.0391
     16 C11        -0.8241   -3.7948   -6.1777 C.3       1 <0>         0.0347
     17 O3         -0.2233   -3.1578   -7.3084 O.3       1 <0>        -0.3552
     18 C12         0.5247   -1.9844   -6.9781 C.3       1 <0>         0.0362
     19 C13         1.6303   -2.3533   -5.9854 C.3       1 <0>        -0.0424
     20 O4          1.3956   -1.4862   -2.3403 O.3       1 <0>        -0.5448
     21 C14         4.6999   -0.0792   -2.2079 C.ar      1 <0>         0.1915
     22 C15         3.9319    0.8571   -2.8889 C.ar      1 <0>        -0.1246
     23 C16         4.5484    1.8622   -3.6075 C.ar      1 <0>        -0.0607
     24 C17         5.9289    1.9308   -3.6592 C.ar      1 <0>        -0.0997
     25 C18         6.6962    0.9972   -2.9873 C.ar      1 <0>        -0.0431
     26 C19         6.0859   -0.0074   -2.2619 C.ar      1 <0>        -0.0280
     27 N2          6.9081   -1.0066   -1.5434 N.pl3     1 <0>         0.0306
     28 O5          8.1235   -0.9430   -1.5912 O.2       1 <0>        -0.1293
     29 O6          6.3693   -1.8924   -0.9043 O.3       1 <0>        -0.1718
     30 H2         -1.2724    1.3433    0.7753 H         1 <0>         0.1345
     31 H3          0.6720    2.7968    0.3631 H         1 <0>         0.1360
     32 H4          2.9105    1.8093    0.0858 H         1 <0>         0.1345
     33 H5          1.2622   -2.0843    0.6445 H         1 <0>         0.1379
     34 H6         -0.9765   -1.0969    0.9209 H         1 <0>         0.1354
     35 H7          4.4866   -2.7352   -2.7158 H         1 <0>         0.1043
     36 H8          3.3318   -3.0518   -1.3988 H         1 <0>         0.1237
     37 H9          2.9116   -3.7574   -4.2860 H         1 <0>         0.1475
     38 H10         1.6391   -3.9943   -3.0642 H         1 <0>         0.1425
     39 H11         0.9389   -4.9095   -5.6337 H         1 <0>         0.1418
     40 H12        -0.1902   -4.6162   -4.2883 H         1 <0>         0.1421
     41 H13        -1.5257   -3.1086   -5.7035 H         1 <0>         0.0814
     42 H14        -1.3542   -4.6899   -6.5033 H         1 <0>         0.1432
     43 H15        -0.1377   -1.2455   -6.5271 H         1 <0>         0.0816
     44 H16         0.9707   -1.5706   -7.8824 H         1 <0>         0.1421
     45 H17         2.1668   -1.4526   -5.6869 H         1 <0>         0.1371
     46 H18         2.3237   -3.0512   -6.4547 H         1 <0>         0.1420
     47 H19         1.0810   -2.0708   -1.6372 H         1 <0>         0.3877
     48 H20         2.8540    0.8015   -2.8527 H         1 <0>         0.1556
     49 H21         3.9520    2.5928   -4.1338 H         1 <0>         0.1526
     50 H22         6.4085    2.7151   -4.2259 H         1 <0>         0.1580
     51 H23         7.7738    1.0534   -3.0300 H         1 <0>         0.1653
     52 N3          1.0101   -2.9639   -4.7905 N.4       1 <0>        -0.3926
     53 H24         0.3553   -2.2919   -4.3736 H         1 <0>         0.4324
@<TRIPOS>BOND
     1    1    6 ar
     2    1    2 ar
     3    1   30 1
     4    2    3 ar
     5    2   31 1
     6    3    4 ar
     7    3   32 1
     8    4    5 ar
     9    4    7 1
    10    5    6 ar
    11    5   33 1
    12    6   34 1
    13    7    8 2
    14    7    9 2
    15    7   10 1
    16   10   11 1
    17   10   21 1
    18   11   12 1
    19   11   35 1
    20   11   36 1
    21   12   13 1
    22   12   14 1
    23   12   20 1
    24   14   37 1
    25   14   38 1
    26   14   52 1
    27   15   16 1
    28   15   39 1
    29   15   40 1
    30   15   52 1
    31   16   17 1
    32   16   41 1
    33   16   42 1
    34   17   18 1
    35   18   19 1
    36   18   43 1
    37   18   44 1
    38   19   45 1
    39   19   46 1
    40   19   52 1
    41   20   47 1
    42   21   26 ar
    43   21   22 ar
    44   22   23 ar
    45   22   48 1
    46   23   24 ar
    47   23   49 1
    48   24   25 ar
    49   24   50 1
    50   25   26 ar
    51   25   51 1
    52   26   27 1
    53   27   28 2
    54   27   29 1
    55   52   53 1
