@<TRIPOS>MOLECULE
ZINC58166158
   52    55     0     0     0
SMALL
USER_CHARGES

@<TRIPOS>ATOM
      1 C1         -0.0184    1.5028    0.0103 C.3       1 <0>        -0.1160
      2 C2          0.0021   -0.0041    0.0020 C.2       1 <0>         0.2322
      3 C3         -1.2017   -0.7191    0.0039 C.2       1 <0>        -0.1946
      4 C4         -1.1700   -2.0759   -0.0036 C.2       1 <0>         0.2120
      5 N1          0.0363   -2.7121   -0.0129 N.pl3     1 <0>        -0.3058
      6 C5          1.1897   -1.9781   -0.0144 C.2       1 <0>         0.3223
      7 N2          1.1501   -0.6445   -0.0124 N.2       1 <0>        -0.4680
      8 C6          2.2550   -2.8978   -0.0245 C.2       1 <0>        -0.1851
      9 C7          1.6866   -4.1834   -0.0288 C.2       1 <0>         0.1536
     10 N3          0.3840   -4.0672   -0.0219 N.2       1 <0>        -0.3032
     11 C8          3.6521   -2.5836   -0.0295 C.1       1 <0>         0.2933
     12 N4          4.7604   -2.3344   -0.0334 N.1       1 <0>        -0.4187
     13 C9         -2.4513   -2.8692   -0.0013 C.3       1 <0>        -0.1247
     14 C10        -2.5200    0.0109    0.0147 C.3       1 <0>        -0.0519
     15 C11        -2.8981    0.3596    1.4556 C.3       1 <0>        -0.1420
     16 C12        -4.2165    1.0896    1.4664 C.2       1 <0>         0.5194
     17 O1         -4.7965    1.3093    0.4242 O.2       1 <0>        -0.5186
     18 N5         -4.7509    1.4984    2.6342 N.am      1 <0>        -0.6236
     19 C13        -4.0572    1.2450    3.9043 C.3       1 <0>         0.1073
     20 C14        -5.0202    0.5313    4.8583 C.3       1 <0>        -0.1408
     21 C15        -6.3012    1.3572    4.9958 C.3       1 <0>        -0.0403
     22 C16        -6.9789    1.4818    3.6292 C.3       1 <0>        -0.1318
     23 C17        -6.0354    2.2112    2.6608 C.3       1 <0>         0.1111
     24 C18        -7.2372    0.6753    5.9600 C.cat     1 <0>         0.3210
     25 N6         -7.3749   -0.6329    6.1047 N.pl3     1 <0>        -0.4853
     26 H1         -6.8926   -1.3135    5.6096 H         1 <0>         0.4634
     27 C19        -8.3016   -0.8571    7.0595 C.2       1 <0>         0.0182
     28 C20        -8.7279    0.3449    7.4958 C.2       1 <0>         0.0193
     29 N7         -8.0520    1.2865    6.8049 N.pl3     1 <0>        -0.4850
     30 H2          1.0042    1.8801    0.0026 H         1 <0>         0.0920
     31 H3         -0.5455    1.8639   -0.8728 H         1 <0>         0.0972
     32 H4         -0.5286    1.8543    0.9071 H         1 <0>         0.0899
     33 H5          2.2352   -5.1137   -0.0368 H         1 <0>         0.2142
     34 H6         -2.7655   -3.0549   -1.0284 H         1 <0>         0.1019
     35 H7         -2.2890   -3.8200    0.5065 H         1 <0>         0.0944
     36 H8         -3.2260   -2.3067    0.5196 H         1 <0>         0.0948
     37 H9         -2.4330    0.9267   -0.5699 H         1 <0>         0.1000
     38 H10        -3.2913   -0.6254   -0.4195 H         1 <0>         0.0939
     39 H11        -2.9852   -0.5562    2.0402 H         1 <0>         0.0971
     40 H12        -2.1269    0.9959    1.8898 H         1 <0>         0.1027
     41 H13        -3.1860    0.6147    3.7254 H         1 <0>         0.1033
     42 H14        -3.7420    2.1914    4.3437 H         1 <0>         0.0856
     43 H15        -5.2634   -0.4538    4.4601 H         1 <0>         0.0792
     44 H16        -4.5503    0.4233    5.8359 H         1 <0>         0.0966
     45 H17        -6.0544    2.3506    5.3706 H         1 <0>         0.1314
     46 H18        -7.2037    0.4878    3.2426 H         1 <0>         0.0822
     47 H19        -7.9033    2.0503    3.7320 H         1 <0>         0.0918
     48 H20        -5.8783    3.2348    3.0008 H         1 <0>         0.0805
     49 H21        -6.4699    2.2186    1.6612 H         1 <0>         0.1105
     50 H22        -8.6395   -1.8213    7.4093 H         1 <0>         0.2284
     51 H23        -9.4705    0.5217    8.2598 H         1 <0>         0.2287
     52 H24        -8.1484    2.2461    6.9081 H         1 <0>         0.4656
@<TRIPOS>BOND
     1    1    2 1
     2    1   30 1
     3    1   31 1
     4    1   32 1
     5    2    7 2
     6    2    3 1
     7    3    4 2
     8    3   14 1
     9    4    5 1
    10    4   13 1
    11    5   10 1
    12    5    6 1
    13    6    7 1
    14    6    8 2
    15    8    9 1
    16    8   11 1
    17    9   10 2
    18    9   33 1
    19   11   12 3
    20   13   34 1
    21   13   35 1
    22   13   36 1
    23   14   15 1
    24   14   37 1
    25   14   38 1
    26   15   16 1
    27   15   39 1
    28   15   40 1
    29   16   17 2
    30   16   18 am
    31   18   23 1
    32   18   19 1
    33   19   20 1
    34   19   41 1
    35   19   42 1
    36   20   21 1
    37   20   43 1
    38   20   44 1
    39   21   22 1
    40   21   24 1
    41   21   45 1
    42   22   23 1
    43   22   46 1
    44   22   47 1
    45   23   48 1
    46   23   49 1
    47   24   29 2
    48   24   25 1
    49   25   26 1
    50   25   27 1
    51   27   28 2
    52   27   50 1
    53   28   29 1
    54   28   51 1
    55   29   52 1
