@<TRIPOS>MOLECULE
ZINC08393555
   49    51     0     0     0
SMALL
USER_CHARGES
1-oxido-N'-[(5-tert-butyl-4,5,6,7-tetrahydrobenzothiophen-2-yl)carbonyl]pyridine-5-carbohydrazide
@<TRIPOS>ATOM
      1 C1         -5.2690    1.1090   -1.1111 C.3       1 <0>        -0.1481
      2 C2         -5.0166    1.4437    0.3604 C.3       1 <0>        -0.0634
      3 C3         -5.0918    0.1634    1.1947 C.3       1 <0>        -0.1463
      4 C4         -6.0773    2.4329    0.8475 C.3       1 <0>        -0.1456
      5 C5         -3.6285    2.0694    0.5103 C.3       1 <0>        -0.0760
      6 H1         -3.4514    2.3103    1.5585 H         1 <0>         0.0744
      7 C6         -3.5552    3.3504   -0.3253 C.3       1 <0>        -0.1142
      8 C7         -2.2701    4.1063    0.0417 C.3       1 <0>        -0.0473
      9 C8         -1.1304    3.1347    0.0279 C.2       1 <0>        -0.1429
     10 C9         -1.2108    1.7712    0.0173 C.2       1 <0>        -0.1412
     11 C10        -0.0126    1.0758    0.0080 C.2       1 <0>        -0.0433
     12 C11         1.1639    1.8021    0.0006 C.2       1 <0>        -0.2518
     13 S1          0.5568    3.4805    0.0144 S.3       1 <0>         0.1496
     14 C12         2.5480    1.3198   -0.0152 C.2       1 <0>         0.6143
     15 O1          2.7757    0.1243   -0.0238 O.2       1 <0>        -0.5192
     16 N1          3.5684    2.2002   -0.0202 N.am      1 <0>        -0.5169
     17 N2          4.8913    1.7392   -0.0353 N.am      1 <0>        -0.5098
     18 C13         5.9117    2.6197   -0.0403 C.2       1 <0>         0.5730
     19 O2          5.6843    3.8137   -0.0317 O.2       1 <0>        -0.5145
     20 C14         7.3078    2.1332   -0.0563 C.ar      1 <0>        -0.1320
     21 C15         8.3766    3.0376   -0.0617 C.ar      1 <0>        -0.0147
     22 C16         9.6643    2.5317   -0.0767 C.ar      1 <0>        -0.1212
     23 C17         9.8537    1.1615   -0.0860 C.ar      1 <0>         0.1011
     24 N3          8.8267    0.3316   -0.0806 N.ar      1 <0>        -0.1206
     25 C18         7.5821    0.7653   -0.0605 C.ar      1 <0>         0.1067
     26 O3          9.0692   -1.0634   -0.0900 O.3       1 <0>        -0.5366
     27 C19        -2.5692    1.0750    0.0338 C.3       1 <0>        -0.0567
     28 H2         -4.5133    0.4043   -1.4582 H         1 <0>         0.0580
     29 H3         -6.2579    0.6632   -1.2179 H         1 <0>         0.0548
     30 H4         -5.2154    2.0211   -1.7055 H         1 <0>         0.0577
     31 H5         -4.9120    0.4018    2.2430 H         1 <0>         0.0549
     32 H6         -6.0807   -0.2824    1.0879 H         1 <0>         0.0556
     33 H7         -4.3362   -0.5414    0.8476 H         1 <0>         0.0578
     34 H8         -6.0237    3.3450    0.2531 H         1 <0>         0.0590
     35 H9         -7.0662    1.9871    0.7407 H         1 <0>         0.0556
     36 H10        -5.8975    2.6713    1.8958 H         1 <0>         0.0549
     37 H11        -4.4213    3.9766   -0.1111 H         1 <0>         0.0814
     38 H12        -3.5404    3.0975   -1.3855 H         1 <0>         0.0720
     39 H13        -2.3707    4.5401    1.0365 H         1 <0>         0.0899
     40 H14        -2.0876    4.8965   -0.6866 H         1 <0>         0.0871
     41 H15         0.0021   -0.0041    0.0020 H         1 <0>         0.1473
     42 H16         3.3869    3.1531   -0.0133 H         1 <0>         0.4345
     43 H17         5.0728    0.7864   -0.0422 H         1 <0>         0.4355
     44 H18         8.2004    4.1031   -0.0545 H         1 <0>         0.1708
     45 H19        10.5129    3.1997   -0.0809 H         1 <0>         0.1776
     46 H20        10.8578    0.7640   -0.0974 H         1 <0>         0.1921
     47 H21         6.7679    0.0559   -0.0516 H         1 <0>         0.1843
     48 H22        -2.5371    0.2223    0.7121 H         1 <0>         0.0797
     49 H23        -2.8150    0.7330   -0.9715 H         1 <0>         0.0827
@<TRIPOS>BOND
     1    1    2 1
     2    1   28 1
     3    1   29 1
     4    1   30 1
     5    2    3 1
     6    2    4 1
     7    2    5 1
     8    3   31 1
     9    3   32 1
    10    3   33 1
    11    4   34 1
    12    4   35 1
    13    4   36 1
    14    5    6 1
    15    5   27 1
    16    5    7 1
    17    7    8 1
    18    7   37 1
    19    7   38 1
    20    8    9 1
    21    8   39 1
    22    8   40 1
    23    9   13 1
    24    9   10 2
    25   10   11 1
    26   10   27 1
    27   11   12 2
    28   11   41 1
    29   12   13 1
    30   12   14 1
    31   14   15 2
    32   14   16 am
    33   16   17 1
    34   16   42 1
    35   17   18 am
    36   17   43 1
    37   18   19 2
    38   18   20 1
    39   20   25 ar
    40   20   21 ar
    41   21   22 ar
    42   21   44 1
    43   22   23 ar
    44   22   45 1
    45   23   24 ar
    46   23   46 1
    47   24   25 ar
    48   24   26 1
    49   25   47 1
    50   27   48 1
    51   27   49 1
