@<TRIPOS>MOLECULE
ZINC07389173
   56    58     0     0     0
SMALL
USER_CHARGES
ethyl 2,4-dimethyl-5-[2-(4-pyrimidin-2-ylpiperazin-1-yl)propanoyl]-1H-pyrrole-3-carboxylate
@<TRIPOS>ATOM
      1 C1         -5.1688   -0.1975    7.5548 C.3       1 <0>        -0.1545
      2 C2         -5.5914    0.4054    6.2136 C.3       1 <0>         0.0600
      3 O1         -4.5042    0.2748    5.2601 O.3       1 <0>        -0.3501
      4 C3         -4.7158    0.7598    4.0208 C.2       1 <0>         0.5397
      5 O2         -5.7798    1.2778    3.7444 O.2       1 <0>        -0.4860
      6 C4         -3.6574    0.6621    3.0012 C.2       1 <0>        -0.2143
      7 C5         -2.6487    1.6159    2.7469 C.2       1 <0>         0.0336
      8 C6         -1.8814    1.1195    1.7152 C.2       1 <0>        -0.1273
      9 N1         -2.4055   -0.1015    1.3419 N.pl3     1 <0>        -0.5241
     10 H1         -2.0596   -0.6684    0.6350 H         1 <0>         0.4249
     11 C7         -3.4663   -0.3820    2.1129 C.2       1 <0>         0.1692
     12 C8         -4.3134   -1.6252    2.0231 C.3       1 <0>        -0.1136
     13 C9         -0.7564    1.7537    1.1358 C.2       1 <0>         0.4172
     14 O3         -0.3906    2.8357    1.5475 O.2       1 <0>        -0.4356
     15 C10        -0.0127    1.0858    0.0080 C.3       1 <0>        -0.0008
     16 H2          0.0221    0.0996    0.1696 H         1 <0>         0.1361
     17 C11        -0.7286    1.3702   -1.3139 C.3       1 <0>        -0.1830
     18 C12         2.0592    1.1138   -1.2455 C.3       1 <0>        -0.0019
     19 C13         3.4515    1.7454   -1.3155 C.3       1 <0>         0.0382
     20 N2          4.1976    1.4171   -0.0928 N.pl3     1 <0>        -0.4632
     21 C14         3.4959    1.9150    1.0986 C.3       1 <0>         0.0462
     22 C15         2.1036    1.2833    1.1686 C.3       1 <0>        -0.0041
     23 C16         5.4886    1.9125   -0.1513 C.ar      1 <0>         0.4747
     24 N3          5.9127    2.7269    0.8039 N.ar      1 <0>        -0.5495
     25 C17         7.1425    3.2136    0.7807 C.ar      1 <0>         0.1782
     26 C18         7.9857    2.8709   -0.2646 C.ar      1 <0>        -0.2364
     27 C19         7.5080    2.0212   -1.2500 C.ar      1 <0>         0.1791
     28 N4          6.2692    1.5654   -1.1641 N.ar      1 <0>        -0.5241
     29 C20        -2.4494    2.9259    3.4648 C.3       1 <0>        -0.1115
     30 H3         -5.9850   -0.0994    8.2706 H         1 <0>         0.0853
     31 H4         -4.9289   -1.2521    7.4196 H         1 <0>         0.0679
     32 H5         -4.2915    0.3295    7.9297 H         1 <0>         0.0679
     33 H6         -5.8313    1.4601    6.3488 H         1 <0>         0.0744
     34 H7         -6.4688   -0.1216    5.8387 H         1 <0>         0.0747
     35 H8         -5.1304   -1.4582    1.3211 H         1 <0>         0.0995
     36 H9         -3.7011   -2.4578    1.6766 H         1 <0>         0.0874
     37 H10        -4.7214   -1.8587    3.0065 H         1 <0>         0.0971
     38 H11        -0.7598    2.4461   -1.4861 H         1 <0>         0.0946
     39 H12        -0.1907    0.8872   -2.1297 H         1 <0>         0.1021
     40 H13        -1.7453    0.9800   -1.2678 H         1 <0>         0.1097
     41 H14         2.1544    0.0296   -1.1849 H         1 <0>         0.1461
     42 H15         1.4937    1.3801   -2.1385 H         1 <0>         0.1461
     43 H16         3.3558    2.8277   -1.4035 H         1 <0>         0.0712
     44 H17         3.9846    1.3555   -2.1826 H         1 <0>         0.1424
     45 H18         3.4008    2.9991    1.0380 H         1 <0>         0.0820
     46 H19         4.0614    1.6486    1.9916 H         1 <0>         0.1362
     47 H20         1.5705    1.6733    2.0357 H         1 <0>         0.1413
     48 H21         2.1993    0.2011    1.2566 H         1 <0>         0.1415
     49 H22         7.4839    3.8738    1.5643 H         1 <0>         0.1780
     50 H23         8.9932    3.2572   -0.3101 H         1 <0>         0.1582
     51 H24         8.1397    1.7345   -2.0777 H         1 <0>         0.1800
     52 H25        -3.0145    3.7078    2.9575 H         1 <0>         0.0892
     53 H26        -2.7992    2.8336    4.4930 H         1 <0>         0.0769
     54 H27        -1.3903    3.1837    3.4631 H         1 <0>         0.0910
     55 N5          1.3567    1.6396   -0.0562 N.4       1 <0>        -0.3913
     56 H28         1.3000    2.6623   -0.1270 H         1 <0>         0.4334
@<TRIPOS>BOND
     1    1    2 1
     2    1   30 1
     3    1   31 1
     4    1   32 1
     5    2    3 1
     6    2   33 1
     7    2   34 1
     8    3    4 1
     9    4    5 2
    10    4    6 1
    11    6   11 2
    12    6    7 1
    13    7    8 2
    14    7   29 1
    15    8    9 1
    16    8   13 1
    17    9   10 1
    18    9   11 1
    19   11   12 1
    20   12   35 1
    21   12   36 1
    22   12   37 1
    23   13   14 2
    24   13   15 1
    25   15   16 1
    26   15   17 1
    27   15   55 1
    28   17   38 1
    29   17   39 1
    30   17   40 1
    31   18   19 1
    32   18   41 1
    33   18   42 1
    34   18   55 1
    35   19   20 1
    36   19   43 1
    37   19   44 1
    38   20   21 1
    39   20   23 1
    40   21   22 1
    41   21   45 1
    42   21   46 1
    43   22   47 1
    44   22   48 1
    45   22   55 1
    46   23   28 ar
    47   23   24 ar
    48   24   25 ar
    49   25   26 ar
    50   25   49 1
    51   26   27 ar
    52   26   50 1
    53   27   28 ar
    54   27   51 1
    55   29   52 1
    56   29   53 1
    57   29   54 1
    58   55   56 1
