@<TRIPOS>MOLECULE
ZINC12528810
   56    60     0     0     0
SMALL
USER_CHARGES

@<TRIPOS>ATOM
      1 C1         -0.0018    1.5030    0.0041 C.3       1 <0>        -0.1271
      2 C2          0.0141   -0.0039   -0.0022 C.ar      1 <0>        -0.0395
      3 C3          1.2200   -0.6810   -0.0142 C.ar      1 <0>        -0.1302
      4 C4          1.2384   -2.0617   -0.0205 C.ar      1 <0>        -0.0536
      5 C5          0.0433   -2.7709   -0.0143 C.ar      1 <0>        -0.2167
      6 C6         -1.1665   -2.0872   -0.0018 C.ar      1 <0>        -0.0546
      7 C7         -1.1772   -0.7064    0.0097 C.ar      1 <0>        -0.1320
      8 S1          0.0619   -4.5328   -0.0229 S.3       1 <0>         0.1624
      9 C8          0.2252   -4.9656    1.6773 C.ar      1 <0>        -0.0381
     10 C9          0.1913   -3.9774    2.6541 C.ar      1 <0>        -0.1287
     11 C10         0.3191   -4.3203    3.9853 C.ar      1 <0>        -0.0385
     12 C11         0.4807   -5.6455    4.3474 C.ar      1 <0>        -0.1781
     13 C12         0.5148   -6.6314    3.3783 C.ar      1 <0>         0.0316
     14 C13         0.3823   -6.2963    2.0451 C.ar      1 <0>        -0.0447
     15 N1          0.4129   -7.3529    1.0089 N.pl3     1 <0>         0.0326
     16 O1          0.5497   -8.5105    1.3298 O.2       1 <0>        -0.1414
     17 O2          0.3011   -7.0584   -0.1583 O.3       1 <0>        -0.1379
     18 C14         0.6203   -6.0157    5.8016 C.3       1 <0>         0.2829
     19 H1          0.3793   -7.0736    5.9061 H         1 <0>         0.1314
     20 C15         2.0700   -5.8178    6.2040 C.2       1 <0>        -0.2749
     21 C16         2.3364   -4.9427    7.2356 C.2       1 <0>         0.2463
     22 C17         3.7619   -4.7050    7.6722 C.3       1 <0>        -0.0736
     23 C18         4.5900   -5.9676    7.4240 C.3       1 <0>        -0.0573
     24 C19         4.5209   -6.3240    5.9358 C.3       1 <0>        -0.1541
     25 C20         3.0776   -6.5065    5.5418 C.2       1 <0>         0.4098
     26 O3          2.7924   -7.2655    4.6352 O.2       1 <0>        -0.4489
     27 C21         6.0450   -5.7122    7.8223 C.3       1 <0>        -0.1451
     28 C22         4.0248   -7.1221    8.2538 C.3       1 <0>        -0.1541
     29 N2          1.3528   -4.2992    7.8564 N.2       1 <0>        -0.4933
     30 C23         0.0727   -4.4182    7.5693 C.2       1 <0>         0.5379
     31 N3         -0.3632   -5.2441    6.5670 N.pl3     1 <0>        -0.4168
     32 N4         -1.7526   -5.1173    6.5447 N.pl3     1 <0>        -0.1322
     33 N5         -2.0750   -4.2778    7.4694 N.2       1 <0>         0.2305
     34 N6         -1.0418   -3.8531    8.0860 N.pl3     1 <0>        -0.3373
     35 H2          0.0071    1.8621    1.0332 H         1 <0>         0.0783
     36 H3          0.8779    1.8778   -0.5191 H         1 <0>         0.0756
     37 H4         -0.9018    1.8590   -0.4972 H         1 <0>         0.0752
     38 H5          2.1484   -0.1292   -0.0190 H         1 <0>         0.1342
     39 H6          2.1804   -2.5898   -0.0306 H         1 <0>         0.1331
     40 H7         -2.0972   -2.6351    0.0030 H         1 <0>         0.1335
     41 H8         -2.1169   -0.1744    0.0238 H         1 <0>         0.1336
     42 H9          0.0656   -2.9425    2.3720 H         1 <0>         0.1515
     43 H10         0.2933   -3.5529    4.7448 H         1 <0>         0.1254
     44 H11         0.6414   -7.6650    3.6647 H         1 <0>         0.1697
     45 H12         4.1829   -3.8767    7.1024 H         1 <0>         0.1143
     46 H13         3.7806   -4.4615    8.7345 H         1 <0>         0.1118
     47 H14         4.9599   -5.5186    5.3470 H         1 <0>         0.1109
     48 H15         5.0683   -7.2493    5.7564 H         1 <0>         0.1127
     49 H16         6.0917   -5.4500    8.8793 H         1 <0>         0.0682
     50 H17         6.6336   -6.6123    7.6450 H         1 <0>         0.0707
     51 H18         6.4463   -4.8925    7.2265 H         1 <0>         0.0652
     52 H19         2.9898   -7.3047    7.9648 H         1 <0>         0.0491
     53 H20         4.6156   -8.0207    8.0760 H         1 <0>         0.0716
     54 H21         4.0663   -6.8634    9.3119 H         1 <0>         0.0686
     55 H22        -2.3625   -5.5749    5.9451 H         1 <0>         0.5186
     56 H23        -1.0546   -3.2155    8.8169 H         1 <0>         0.5117
@<TRIPOS>BOND
     1    1    2 1
     2    1   35 1
     3    1   36 1
     4    1   37 1
     5    2    7 ar
     6    2    3 ar
     7    3    4 ar
     8    3   38 1
     9    4    5 ar
    10    4   39 1
    11    5    6 ar
    12    5    8 1
    13    6    7 ar
    14    6   40 1
    15    7   41 1
    16    8    9 1
    17    9   14 ar
    18    9   10 ar
    19   10   11 ar
    20   10   42 1
    21   11   12 ar
    22   11   43 1
    23   12   13 ar
    24   12   18 1
    25   13   14 ar
    26   13   44 1
    27   14   15 1
    28   15   16 2
    29   15   17 1
    30   18   19 1
    31   18   31 1
    32   18   20 1
    33   20   25 1
    34   20   21 2
    35   21   22 1
    36   21   29 1
    37   22   23 1
    38   22   45 1
    39   22   46 1
    40   23   24 1
    41   23   27 1
    42   23   28 1
    43   24   25 1
    44   24   47 1
    45   24   48 1
    46   25   26 2
    47   27   49 1
    48   27   50 1
    49   27   51 1
    50   28   52 1
    51   28   53 1
    52   28   54 1
    53   29   30 2
    54   30   34 1
    55   30   31 1
    56   31   32 1
    57   32   33 1
    58   32   55 1
    59   33   34 2
    60   34   56 1
