@<TRIPOS>MOLECULE
ZINC00680227
   41    43     0     0     0
SMALL
USER_CHARGES
(8R,8aR)-6-amino-8-(3,4-difluorophenyl)-2-methyl-1,3,8,8a-tetrahydroisoquinoline-5,7,7-tricarbonitrile
@<TRIPOS>ATOM
      1 C1         -1.1280    4.2200   -4.3010 C.3       1 <0>         0.0207
      2 N1         -1.8301    3.5539   -3.1959 N.3       1 <0>        -0.5279
      3 C2         -2.6674    2.4477   -3.6926 C.3       1 <0>         0.0803
      4 C3         -3.2204    1.7174   -2.4941 C.2       1 <0>        -0.1298
      5 C4         -3.4862    2.3759   -1.3814 C.2       1 <0>        -0.0439
      6 C5         -3.3163    3.8623   -1.2492 C.3       1 <0>        -0.0381
      7 H1         -4.3205    4.3108   -1.2280 H         1 <0>         0.0972
      8 C6         -2.6480    4.5083   -2.4422 C.3       1 <0>         0.0555
      9 C7         -2.5567    4.1408    0.0494 C.3       1 <0>        -0.0190
     10 H2         -2.3513    5.2172    0.1452 H         1 <0>         0.1256
     11 C8         -3.3976    3.6589    1.2319 C.3       1 <0>         0.2098
     12 C9         -3.8648    2.2452    1.0385 C.2       1 <0>         0.2498
     13 C10        -3.9240    1.6343   -0.1723 C.2       1 <0>        -0.1416
     14 C11        -4.4038    0.2896   -0.2819 C.1       1 <0>         0.2639
     15 N2         -4.7844   -0.7772   -0.3689 N.1       1 <0>        -0.4258
     16 N3         -4.2501    1.5355    2.1410 N.pl3     1 <0>        -0.8644
     17 C12        -2.5887    3.7369    2.4593 C.1       1 <0>         0.1896
     18 N4         -1.9645    3.7972    3.4065 N.1       1 <0>        -0.3438
     19 C13        -4.5706    4.5363    1.3759 C.1       1 <0>         0.1978
     20 N5         -5.4759    5.2135    1.4870 N.1       1 <0>        -0.3489
     21 C14        -1.2416    3.4052    0.0323 C.ar      1 <0>        -0.0605
     22 C15        -1.1546    2.1338    0.5684 C.ar      1 <0>        -0.1011
     23 C16         0.0504    1.4569    0.5535 C.ar      1 <0>        -0.1189
     24 C17         1.1716    2.0518    0.0015 C.ar      1 <0>         0.0738
     25 C18         1.0843    3.3269   -0.5361 C.ar      1 <0>         0.0756
     26 C19        -0.1225    4.0043   -0.5145 C.ar      1 <0>        -0.0871
     27 F1          2.1773    3.9096   -1.0755 F         1 <0>        -0.1272
     28 F2          2.3499    1.3911   -0.0131 F         1 <0>        -0.1283
     29 H3         -0.5231    3.4823   -4.8487 H         1 <0>         0.0725
     30 H4         -0.4720    5.0056   -3.8980 H         1 <0>         0.0714
     31 H5         -1.8633    4.6708   -4.9838 H         1 <0>         0.0286
     32 H6         -3.4863    2.8539   -4.3045 H         1 <0>         0.0524
     33 H7         -2.0541    1.7697   -4.3043 H         1 <0>         0.0900
     34 H8         -3.4021    0.6339   -2.5487 H         1 <0>         0.1188
     35 H9         -2.0120    5.3284   -2.0776 H         1 <0>         0.0868
     36 H10        -3.4325    4.9159   -3.0967 H         1 <0>         0.0482
     37 H11        -4.5975    0.4974    2.0331 H         1 <0>         0.4382
     38 H12        -4.2129    2.0024    3.1363 H         1 <0>         0.4279
     39 H13        -2.0292    1.6688    0.9989 H         1 <0>         0.1423
     40 H14         0.1172    0.4639    0.9729 H         1 <0>         0.1440
     41 H15        -0.1906    4.9995   -0.9285 H         1 <0>         0.1455
@<TRIPOS>BOND
     1    1    2 1
     2    1   29 1
     3    1   30 1
     4    1   31 1
     5    2    8 1
     6    2    3 1
     7    3    4 1
     8    3   32 1
     9    3   33 1
    10    4    5 2
    11    4   34 1
    12    5   13 1
    13    5    6 1
    14    6    7 1
    15    6    8 1
    16    6    9 1
    17    8   35 1
    18    8   36 1
    19    9   10 1
    20    9   11 1
    21    9   21 1
    22   11   12 1
    23   11   17 1
    24   11   19 1
    25   12   13 2
    26   12   16 1
    27   13   14 1
    28   14   15 3
    29   16   37 1
    30   16   38 1
    31   17   18 3
    32   19   20 3
    33   21   26 ar
    34   21   22 ar
    35   22   23 ar
    36   22   39 1
    37   23   24 ar
    38   23   40 1
    39   24   25 ar
    40   24   28 1
    41   25   26 ar
    42   25   27 1
    43   26   41 1
