@<TRIPOS>MOLECULE
ZINC64127969
   44    48     0     0     0
SMALL
USER_CHARGES

@<TRIPOS>ATOM
      1 C1         -0.0187    1.5258    0.0104 C.3       1 <0>        -0.1838
      2 C2          0.0021   -0.0041    0.0020 C.3       1 <0>         0.3485
      3 H1          0.4984   -0.3735   -0.8953 H         1 <0>         0.0984
      4 N1         -1.3664   -0.5391    0.0921 N.pl3     1 <0>        -0.6541
      5 N2         -1.4185   -1.2863    1.2728 N.2       1 <0>        -0.2591
      6 C3         -0.2743   -1.2737    1.9018 C.2       1 <0>         0.2717
      7 N3          0.6694   -0.5175    1.2089 N.pl3     1 <0>        -0.5326
      8 C4          1.9331   -0.3636    1.6728 C.2       1 <0>         0.2803
      9 C5          2.3334   -0.9511    2.8489 C.2       1 <0>        -0.2882
     10 C6          1.3830   -1.7609    3.6227 C.2       1 <0>        -0.0472
     11 C7          0.1148   -1.9173    3.1661 C.2       1 <0>        -0.1049
     12 C8          3.7094   -0.7700    3.3311 C.2       1 <0>         0.5949
     13 O1          4.4958   -0.0993    2.6890 O.2       1 <0>        -0.5154
     14 N4          4.1006   -1.3469    4.4847 N.am      1 <0>        -0.6048
     15 C9          5.3984   -1.1761    4.9396 C.2       1 <0>         0.2981
     16 N5          5.9626   -1.6579    6.0263 N.2       1 <0>        -0.5002
     17 C10         7.2454   -1.3592    6.2673 C.2       1 <0>         0.0294
     18 C11         7.9154   -0.5541    5.3552 C.2       1 <0>        -0.2484
     19 S1          6.7320   -0.2537    4.1974 S.3       1 <0>         0.3588
     20 C12         7.8993   -1.8491    7.4181 C.2       1 <0>         0.1668
     21 C13         7.3599   -2.6648    8.4093 C.ar      1 <0>        -0.1735
     22 C14         6.0786   -3.2328    8.5842 C.ar      1 <0>         0.0093
     23 C15         5.8279   -4.0061    9.6713 C.ar      1 <0>        -0.1699
     24 C16         6.8102   -4.2589   10.6315 C.ar      1 <0>         0.0440
     25 C17         8.0609   -3.7462   10.5278 C.ar      1 <0>        -0.2105
     26 C18         8.3985   -2.9285    9.4187 C.ar      1 <0>         0.3064
     27 N6          9.5229   -2.3219    9.0924 N.pl3     1 <0>        -0.6140
     28 C19         9.3343   -1.6030    7.8286 C.3       1 <0>         0.0789
     29 H2          1.0039    1.9031    0.0027 H         1 <0>         0.0755
     30 H3         -0.5459    1.8868   -0.8726 H         1 <0>         0.0869
     31 H4         -0.5289    1.8773    0.9072 H         1 <0>         0.0702
     32 H5         -2.0880   -0.4007   -0.5411 H         1 <0>         0.4559
     33 H6          2.6373    0.2302    1.1090 H         1 <0>         0.1760
     34 H7          1.6896   -2.2264    4.5477 H         1 <0>         0.1396
     35 H8         -0.5992   -2.5088    3.7198 H         1 <0>         0.1572
     36 H9          3.4737   -1.8816    4.9966 H         1 <0>         0.4320
     37 H10         8.9392   -0.2111    5.3804 H         1 <0>         0.2180
     38 H11         5.3015   -3.0523    7.8563 H         1 <0>         0.1604
     39 H12         4.8452   -4.4359    9.7969 H         1 <0>         0.1505
     40 H13         6.5664   -4.8801   11.4806 H         1 <0>         0.1556
     41 H14         8.7982   -3.9596   11.2875 H         1 <0>         0.1552
     42 H15        10.0136   -1.9899    7.0691 H         1 <0>         0.1687
     43 H16         9.5046   -0.5366    7.9770 H         1 <0>         0.1681
     44 H17        10.3458   -2.3501    9.6053 H         1 <0>         0.4514
@<TRIPOS>BOND
     1    1    2 1
     2    1   29 1
     3    1   30 1
     4    1   31 1
     5    2    3 1
     6    2    7 1
     7    2    4 1
     8    4    5 1
     9    4   32 1
    10    5    6 2
    11    6   11 1
    12    6    7 1
    13    7    8 1
    14    8    9 2
    15    8   33 1
    16    9   10 1
    17    9   12 1
    18   10   11 2
    19   10   34 1
    20   11   35 1
    21   12   13 2
    22   12   14 am
    23   14   15 1
    24   14   36 1
    25   15   19 1
    26   15   16 2
    27   16   17 1
    28   17   18 2
    29   17   20 1
    30   18   19 1
    31   18   37 1
    32   20   28 1
    33   20   21 2
    34   21   26 ar
    35   21   22 ar
    36   22   23 ar
    37   22   38 1
    38   23   24 ar
    39   23   39 1
    40   24   25 ar
    41   24   40 1
    42   25   26 ar
    43   25   41 1
    44   26   27 2
    45   27   28 1
    46   27   44 1
    47   28   42 1
    48   28   43 1
