@<TRIPOS>MOLECULE
ZINC52486097
   46    48     0     0     0
SMALL
USER_CHARGES

@<TRIPOS>ATOM
      1 C1         -2.5015    1.4940   -0.7979 C.3       1 <0>        -0.0504
      2 N1         -2.0616    0.2026   -1.3427 N.4       1 <0>        -0.3799
      3 C2         -1.4980    0.4036   -2.6843 C.3       1 <0>        -0.0562
      4 C3         -1.0375   -0.3766   -0.4631 C.3       1 <0>         0.0671
      5 H1         -0.1704    0.2832   -0.4313 H         1 <0>         0.1538
      6 C4         -0.6173   -1.7455   -1.0020 C.3       1 <0>         0.1025
      7 N2          0.4956   -2.2643   -0.2029 N.pl3     1 <0>        -0.6780
      8 C5          0.9747   -3.5410   -0.4316 C.2       1 <0>         0.5485
      9 C6          1.9522   -4.0797    0.4015 C.2       1 <0>        -0.3408
     10 C7          2.4165   -5.3683    0.1475 C.2       1 <0>         0.5508
     11 O1          3.2731   -5.8691    0.8602 O.2       1 <0>        -0.4576
     12 N3          1.9074   -6.0568   -0.8961 N.am      1 <0>        -0.4335
     13 C8          2.3559   -7.3182   -1.1517 C.2       1 <0>         0.1232
     14 C9          1.8636   -8.0298   -2.1897 C.2       1 <0>        -0.1628
     15 C10         0.8800   -7.4750   -3.0212 C.2       1 <0>         0.0117
     16 C11         0.4243   -6.2152   -2.7750 C.2       1 <0>        -0.1559
     17 C12         0.9483   -5.4893   -1.6885 C.2       1 <0>         0.4524
     18 N4          0.4993   -4.2605   -1.4451 N.2       1 <0>        -0.5863
     19 N5          2.4890   -3.2962    1.5373 N.pl3     1 <0>         0.0921
     20 O2          2.0172   -2.2151    1.8024 O.2       1 <0>        -0.2384
     21 O3          3.3990   -3.7375    2.1996 O.3       1 <0>        -0.1215
     22 C13        -1.5996   -0.5346    0.9262 C.ar      1 <0>        -0.1651
     23 C14        -2.9002   -0.9699    1.0997 C.ar      1 <0>        -0.0898
     24 C15        -3.4166   -1.1157    2.3733 C.ar      1 <0>        -0.1423
     25 C16        -2.6308   -0.8255    3.4757 C.ar      1 <0>         0.1360
     26 C17        -1.3283   -0.3896    3.3007 C.ar      1 <0>        -0.1357
     27 C18        -0.8124   -0.2496    2.0263 C.ar      1 <0>        -0.0484
     28 F1         -3.1347   -0.9672    4.7212 F         1 <0>        -0.1214
     29 H2         -3.2614    1.9238   -1.4506 H         1 <0>         0.1306
     30 H3         -2.9197    1.3450    0.1976 H         1 <0>         0.1264
     31 H4         -1.6499    2.1715   -0.7365 H         1 <0>         0.1264
     32 H5         -0.6132    1.0364   -2.6157 H         1 <0>         0.1271
     33 H6         -1.2227   -0.5610   -3.1109 H         1 <0>         0.1273
     34 H7         -2.2400    0.8843   -3.3218 H         1 <0>         0.1328
     35 H8         -1.4601   -2.4341   -0.9415 H         1 <0>         0.1006
     36 H9         -0.3032   -1.6461   -2.0410 H         1 <0>         0.1006
     37 H10         0.8963   -1.7121    0.4867 H         1 <0>         0.4329
     38 H11         3.1137   -7.7539   -0.5175 H         1 <0>         0.1959
     39 H12         2.2290   -9.0282   -2.3796 H         1 <0>         0.1752
     40 H13         0.4866   -8.0428   -3.8514 H         1 <0>         0.1679
     41 H14        -0.3325   -5.7765   -3.4085 H         1 <0>         0.1761
     42 H15        -3.5130   -1.1959    0.2396 H         1 <0>         0.1298
     43 H16        -4.4328   -1.4555    2.5086 H         1 <0>         0.1497
     44 H17        -0.7145   -0.1626    4.1599 H         1 <0>         0.1540
     45 H18         0.2050    0.0861    1.8897 H         1 <0>         0.1478
     46 H19        -2.8500   -0.4245   -1.3995 H         1 <0>         0.4251
@<TRIPOS>BOND
     1    1    2 1
     2    1   29 1
     3    1   30 1
     4    1   31 1
     5    2    3 1
     6    2    4 1
     7    2   46 1
     8    3   32 1
     9    3   33 1
    10    3   34 1
    11    4    5 1
    12    4    6 1
    13    4   22 1
    14    6    7 1
    15    6   35 1
    16    6   36 1
    17    7    8 1
    18    7   37 1
    19    8   18 1
    20    8    9 2
    21    9   10 1
    22    9   19 1
    23   10   11 2
    24   10   12 am
    25   12   17 1
    26   12   13 1
    27   13   14 2
    28   13   38 1
    29   14   15 1
    30   14   39 1
    31   15   16 2
    32   15   40 1
    33   16   17 1
    34   16   41 1
    35   17   18 2
    36   19   20 2
    37   19   21 1
    38   22   27 ar
    39   22   23 ar
    40   23   24 ar
    41   23   42 1
    42   24   25 ar
    43   24   43 1
    44   25   26 ar
    45   25   28 1
    46   26   27 ar
    47   26   44 1
    48   27   45 1
