@<TRIPOS>MOLECULE
ZINC38556305
   49    52     0     0     0
SMALL
USER_CHARGES

@<TRIPOS>ATOM
      1 C1         -0.0173    1.4248    0.0099 C.3       1 <0>         0.0222
      2 O1          0.0021   -0.0041    0.0020 O.3       1 <0>        -0.3094
      3 C2          0.6247   -0.6173    1.0397 C.ar      1 <0>         0.1691
      4 C3          1.2014    0.1449    2.0500 C.ar      1 <0>        -0.2212
      5 C4          1.8315   -0.4700    3.1012 C.ar      1 <0>        -0.0097
      6 C5          1.8938   -1.8679    3.1563 C.ar      1 <0>        -0.2091
      7 C6          1.3115   -2.6307    2.1364 C.ar      1 <0>        -0.0307
      8 C7          0.6791   -2.0060    1.0923 C.ar      1 <0>        -0.1625
      9 C8          2.5678   -2.5317    4.2796 C.2       1 <0>         0.4236
     10 O2          3.0718   -1.8691    5.1617 O.2       1 <0>        -0.4308
     11 C9          2.6333   -4.0363    4.3363 C.3       1 <0>        -0.1796
     12 S1          3.5230   -4.5468    5.8324 S.3       1 <0>        -0.0590
     13 C10         3.5142   -6.3590    5.7514 C.3       1 <0>         0.1158
     14 H1          4.0409   -6.7791    6.6082 H         1 <0>         0.1681
     15 N1          4.1277   -6.8179    4.4985 N.2       1 <0>        -0.1209
     16 N2          3.2694   -7.1700    3.6834 N.2       1 <0>        -0.1561
     17 C11         1.9172   -7.0140    4.2350 C.3       1 <0>         0.1506
     18 H2          1.4412   -6.1225    3.8266 H         1 <0>         0.1395
     19 N3          2.1201   -6.8675    5.7014 N.3       1 <0>        -0.3371
     20 N4          2.0093   -8.1516    6.3744 N.3       1 <0>        -0.7019
     21 C12         1.0725   -8.2534    3.9333 C.3       1 <0>        -0.0313
     22 H3          1.4829   -9.1290    4.4362 H         1 <0>         0.1712
     23 C13         0.9814   -8.4888    2.4360 C.2       1 <0>        -0.1187
     24 C14        -0.3357   -8.3866    2.1729 C.2       1 <0>         0.0028
     25 N5         -1.0279   -8.1235    3.3122 N.2       1 <0>        -0.1409
     26 N6         -0.3290   -8.0362    4.3285 N.2       1 <0>        -0.1471
     27 C15        -0.9446   -8.5392    0.8286 C.ar      1 <0>        -0.0442
     28 C16        -0.1403   -8.8144   -0.2758 C.ar      1 <0>        -0.0709
     29 C17        -0.7108   -8.9561   -1.5240 C.ar      1 <0>        -0.1523
     30 C18        -2.0812   -8.8247   -1.6805 C.ar      1 <0>         0.1120
     31 C19        -2.8846   -8.5507   -0.5854 C.ar      1 <0>        -0.1535
     32 C20        -2.3232   -8.4136    0.6675 C.ar      1 <0>        -0.0575
     33 F1         -2.6357   -8.9637   -2.9046 F         1 <0>        -0.1347
     34 H4          1.0053    1.8021    0.0021 H         1 <0>         0.0610
     35 H5         -0.5445    1.7859   -0.8732 H         1 <0>         0.1062
     36 H6         -0.5275    1.7763    0.9067 H         1 <0>         0.0609
     37 H7          1.1532    1.2229    2.0064 H         1 <0>         0.1390
     38 H8          2.2793    0.1228    3.8851 H         1 <0>         0.1403
     39 H9          1.3568   -3.7090    2.1742 H         1 <0>         0.1320
     40 H10         0.2262   -2.5934    0.3073 H         1 <0>         0.1406
     41 H11         1.6224   -4.4434    4.3581 H         1 <0>         0.1195
     42 H12         3.1569   -4.4106    3.4567 H         1 <0>         0.1174
     43 H13         2.2792   -8.0762    7.3438 H         1 <0>         0.3668
     44 H14         1.0767   -8.5265    6.2868 H         1 <0>         0.3710
     45 H15         1.7852   -8.6909    1.7436 H         1 <0>         0.1834
     46 H16         0.9281   -8.9163   -0.1548 H         1 <0>         0.1366
     47 H17        -0.0883   -9.1693   -2.3804 H         1 <0>         0.1425
     48 H18        -3.9523   -8.4487   -0.7120 H         1 <0>         0.1423
     49 H19        -2.9506   -8.2044    1.5213 H         1 <0>         0.1449
@<TRIPOS>BOND
     1    1    2 1
     2    1   34 1
     3    1   35 1
     4    1   36 1
     5    2    3 1
     6    3    8 ar
     7    3    4 ar
     8    4    5 ar
     9    4   37 1
    10    5    6 ar
    11    5   38 1
    12    6    7 ar
    13    6    9 1
    14    7    8 ar
    15    7   39 1
    16    8   40 1
    17    9   10 2
    18    9   11 1
    19   11   12 1
    20   11   41 1
    21   11   42 1
    22   12   13 1
    23   13   14 1
    24   13   19 1
    25   13   15 1
    26   15   16 2
    27   16   17 1
    28   17   18 1
    29   17   19 1
    30   17   21 1
    31   19   20 1
    32   20   43 1
    33   20   44 1
    34   21   22 1
    35   21   26 1
    36   21   23 1
    37   23   24 2
    38   23   45 1
    39   24   25 1
    40   24   27 1
    41   25   26 2
    42   27   32 ar
    43   27   28 ar
    44   28   29 ar
    45   28   46 1
    46   29   30 ar
    47   29   47 1
    48   30   31 ar
    49   30   33 1
    50   31   32 ar
    51   31   48 1
    52   32   49 1
