@<TRIPOS>MOLECULE
ZINC01856976
   52    56     0     0     0
SMALL
USER_CHARGES
hydroxy-(3,4,5-trimethoxyphenyl)-BLAHdione
@<TRIPOS>ATOM
      1 C1          0.4016   -5.5688   -1.1035 C.3       1 <0>         0.0221
      2 O1          0.8195   -5.0243   -2.3569 O.3       1 <0>        -0.2995
      3 C2          1.1406   -3.7030   -2.3797 C.ar      1 <0>         0.1559
      4 C3          1.0549   -2.9475   -1.2201 C.ar      1 <0>        -0.2159
      5 C4          1.3809   -1.6044   -1.2423 C.ar      1 <0>        -0.0259
      6 C5          1.7877   -1.0075   -2.4208 C.ar      1 <0>        -0.2142
      7 C6          1.8811   -1.7571   -3.5837 C.ar      1 <0>         0.1523
      8 C7          1.5546   -3.1079   -3.5655 C.ar      1 <0>         0.0353
      9 O2          1.6404   -3.8460   -4.7056 O.3       1 <0>        -0.3116
     10 C8          0.4726   -3.9098   -5.5266 C.3       1 <0>         0.0356
     11 O3          2.2871   -1.1703   -4.7414 O.3       1 <0>        -0.2991
     12 C9          2.6065    0.2215   -4.6860 C.3       1 <0>         0.0238
     13 C10         1.2868   -0.7873    0.0205 C.3       1 <0>         0.2434
     14 H1          1.2796   -1.4600    0.8780 H         1 <0>         0.1254
     15 C11         0.0021   -0.0041    0.0020 C.ar      1 <0>        -0.0108
     16 C12        -1.1732   -0.7256   -0.0172 C.ar      1 <0>        -0.1109
     17 C13        -2.3776   -0.0282   -0.0150 C.ar      1 <0>         0.0945
     18 C14        -2.4099    1.3742    0.0070 C.ar      1 <0>        -0.0085
     19 C15        -1.2350    2.1130    0.0193 C.ar      1 <0>         0.1906
     20 C16        -0.0169    1.3930    0.0097 C.ar      1 <0>        -0.1863
     21 C17         1.2332    2.1640    0.0019 C.2       1 <0>         0.3921
     22 O4          1.2315    3.3425    0.2907 O.2       1 <0>        -0.4078
     23 C18         2.5157    1.4712   -0.3698 C.3       1 <0>         0.1045
     24 H2          2.6407    1.5107   -1.3612 H         1 <0>         0.1037
     25 N1          2.4582    0.0848    0.1115 N.am      1 <0>        -0.6119
     26 C19         3.6314   -0.2660    0.6800 C.2       1 <0>         0.5259
     27 O5          3.8746   -1.3583    1.1476 O.2       1 <0>        -0.5084
     28 C20         4.5990    0.8952    0.6519 C.3       1 <0>        -0.1524
     29 C21         3.7074    2.1239    0.3544 C.3       1 <0>        -0.1170
     30 O6         -1.2537    3.4698    0.0432 O.3       1 <0>        -0.4574
     31 O7         -3.7000    1.7825    0.0088 O.3       1 <0>        -0.2912
     32 C22        -4.4665    0.6338   -0.4095 C.3       1 <0>         0.2081
     33 O8         -3.6471   -0.4911   -0.0299 O.3       1 <0>        -0.2948
     34 H3         -0.4899   -5.0448   -0.7589 H         1 <0>         0.0579
     35 H4          0.1762   -6.6283   -1.2247 H         1 <0>         0.1052
     36 H5          1.1997   -5.4486   -0.3709 H         1 <0>         0.0612
     37 H6          0.7332   -3.4092   -0.2982 H         1 <0>         0.1397
     38 H7          2.0370    0.0433   -2.4351 H         1 <0>         0.1312
     39 H8          0.1991   -2.9049   -5.8482 H         1 <0>         0.0441
     40 H9          0.6763   -4.5282   -6.4008 H         1 <0>         0.0940
     41 H10        -0.3486   -4.3451   -4.9571 H         1 <0>         0.0449
     42 H11         1.7292    0.7831   -4.3649 H         1 <0>         0.0552
     43 H12         3.4189    0.3799   -3.9767 H         1 <0>         0.0574
     44 H13         2.9151    0.5631   -5.6740 H         1 <0>         0.1060
     45 H14        -1.1592   -1.8054   -0.0338 H         1 <0>         0.1548
     46 H15         5.0908    1.0057    1.6184 H         1 <0>         0.1131
     47 H16         5.3379    0.7573   -0.1375 H         1 <0>         0.1134
     48 H17         3.3869    2.6069    1.2774 H         1 <0>         0.0956
     49 H18         4.2212    2.8313   -0.2965 H         1 <0>         0.1050
     50 H19        -1.2568    3.8786   -0.8331 H         1 <0>         0.3977
     51 H20        -4.6187    0.6486   -1.4887 H         1 <0>         0.0942
     52 H21        -5.4233    0.6026    0.1118 H         1 <0>         0.1395
@<TRIPOS>BOND
     1    1    2 1
     2    1   34 1
     3    1   35 1
     4    1   36 1
     5    2    3 1
     6    3    8 ar
     7    3    4 ar
     8    4    5 ar
     9    4   37 1
    10    5    6 ar
    11    5   13 1
    12    6    7 ar
    13    6   38 1
    14    7    8 ar
    15    7   11 1
    16    8    9 1
    17    9   10 1
    18   10   39 1
    19   10   40 1
    20   10   41 1
    21   11   12 1
    22   12   42 1
    23   12   43 1
    24   12   44 1
    25   13   14 1
    26   13   25 1
    27   13   15 1
    28   15   20 ar
    29   15   16 ar
    30   16   17 ar
    31   16   45 1
    32   17   33 1
    33   17   18 ar
    34   18   19 ar
    35   18   31 1
    36   19   20 ar
    37   19   30 1
    38   20   21 1
    39   21   22 2
    40   21   23 1
    41   23   24 1
    42   23   29 1
    43   23   25 1
    44   25   26 am
    45   26   27 2
    46   26   28 1
    47   28   29 1
    48   28   46 1
    49   28   47 1
    50   29   48 1
    51   29   49 1
    52   30   50 1
    53   31   32 1
    54   32   33 1
    55   32   51 1
    56   32   52 1
