@<TRIPOS>MOLECULE
ZINC47765245
   57    59     0     0     0
SMALL
USER_CHARGES

@<TRIPOS>ATOM
      1 C1         -0.3651    0.9884    2.4098 C.3       1 <0>        -0.1523
      2 C2         -0.2559   -0.4035    1.7840 C.3       1 <0>         0.0560
      3 O1         -1.5106   -0.7645    1.2031 O.3       1 <0>        -0.3228
      4 C3         -1.5847   -1.9813    0.6007 C.ar      1 <0>         0.1067
      5 C4         -0.4761   -2.8118    0.5744 C.ar      1 <0>        -0.1888
      6 C5         -0.5529   -4.0485   -0.0389 C.ar      1 <0>        -0.0575
      7 C6         -1.7344   -4.4603   -0.6273 C.ar      1 <0>        -0.1353
      8 C7         -2.8449   -3.6379   -0.6050 C.ar      1 <0>        -0.0889
      9 C8         -2.7770   -2.3982    0.0135 C.ar      1 <0>         0.1217
     10 N1         -3.9035   -1.5645    0.0422 N.am      1 <0>        -0.6686
     11 C9         -5.1380   -2.0963   -0.0555 C.2       1 <0>         0.7065
     12 O2         -5.2809   -3.3037   -0.0644 O.2       1 <0>        -0.5627
     13 N2         -6.2142   -1.2897   -0.1433 N.am      1 <0>        -0.7488
     14 C10        -7.5561   -1.8677   -0.2495 C.3       1 <0>         0.1842
     15 C11        -8.5749   -0.7604   -0.3333 C.ar      1 <0>        -0.1587
     16 C12        -9.1405   -0.2386    0.8228 C.ar      1 <0>         0.0542
     17 C13       -10.0715    0.7769    0.7019 C.ar      1 <0>        -0.1979
     18 C14       -10.4082    1.2387   -0.5667 C.ar      1 <0>         0.4496
     19 N3         -9.8465    0.7151   -1.6453 N.ar      1 <0>        -0.5062
     20 C15        -8.9511   -0.2506   -1.5596 C.ar      1 <0>         0.1683
     21 N4        -11.3429    2.2584   -0.7029 N.pl3     1 <0>        -0.5880
     22 C16       -11.8089    2.6863   -2.0315 C.3       1 <0>         0.0591
     23 C17       -13.3418    2.7015   -2.0244 C.3       1 <0>         0.0483
     24 O3        -13.7996    3.4738   -0.9119 O.3       1 <0>        -0.3613
     25 C18       -13.4245    2.9445    0.3621 C.3       1 <0>         0.0726
     26 H1        -13.7986    1.9252    0.4573 H         1 <0>         0.0731
     27 C19       -11.9001    2.9379    0.4774 C.3       1 <0>         0.0772
     28 C20       -14.0200    3.8132    1.4719 C.3       1 <0>        -0.1514
     29 C21         0.6545   -4.9499   -0.0666 C.3       1 <0>        -0.1185
     30 H2          0.5919    1.2637    2.8529 H         1 <0>         0.0819
     31 H3         -0.6310    1.7129    1.6401 H         1 <0>         0.0651
     32 H4         -1.1342    0.9801    3.1822 H         1 <0>         0.0653
     33 H5          0.5132   -0.3953    1.0116 H         1 <0>         0.0644
     34 H6          0.0100   -1.1281    2.5537 H         1 <0>         0.0645
     35 H7          0.4483   -2.4930    1.0328 H         1 <0>         0.1331
     36 H8         -1.7896   -5.4270   -1.1059 H         1 <0>         0.1295
     37 H9         -3.7665   -3.9621   -1.0653 H         1 <0>         0.1529
     38 H10        -3.7945   -0.6049    0.1323 H         1 <0>         0.4104
     39 H11        -6.1002   -0.3264   -0.1362 H         1 <0>         0.3987
     40 H12        -7.6159   -2.4850   -1.1458 H         1 <0>         0.0952
     41 H13        -7.7579   -2.4813    0.6285 H         1 <0>         0.0995
     42 H14        -8.8597   -0.6175    1.7944 H         1 <0>         0.1777
     43 H15       -10.5313    1.2053    1.5802 H         1 <0>         0.1819
     44 H16        -8.5102   -0.6502   -2.4609 H         1 <0>         0.2093
     45 H17       -11.4329    3.6862   -2.2480 H         1 <0>         0.1106
     46 H18       -11.4523    1.9875   -2.7882 H         1 <0>         0.0892
     47 H19       -13.7058    3.1461   -2.9506 H         1 <0>         0.1262
     48 H20       -13.7156    1.6813   -1.9378 H         1 <0>         0.0658
     49 H21       -11.6038    2.4057    1.3813 H         1 <0>         0.1117
     50 H22       -11.5334    3.9636    0.5178 H         1 <0>         0.1069
     51 H23       -15.1066    3.8175    1.3863 H         1 <0>         0.0807
     52 H24       -13.7336    3.4091    2.4428 H         1 <0>         0.0821
     53 H25       -13.6441    4.8319    1.3771 H         1 <0>         0.0736
     54 H26         0.6505   -5.5898    0.8158 H         1 <0>         0.0747
     55 H27         0.6259   -5.5681   -0.9639 H         1 <0>         0.0711
     56 H28         1.5604   -4.3437   -0.0717 H         1 <0>         0.0676
     57 H29       -10.0964    1.0522   -2.5198 H         1 <0>         0.4403
@<TRIPOS>BOND
     1    1    2 1
     2    1   30 1
     3    1   31 1
     4    1   32 1
     5    2    3 1
     6    2   33 1
     7    2   34 1
     8    3    4 1
     9    4    9 ar
    10    4    5 ar
    11    5    6 ar
    12    5   35 1
    13    6    7 ar
    14    6   29 1
    15    7    8 ar
    16    7   36 1
    17    8    9 ar
    18    8   37 1
    19    9   10 1
    20   10   11 am
    21   10   38 1
    22   11   12 2
    23   11   13 am
    24   13   14 1
    25   13   39 1
    26   14   15 1
    27   14   40 1
    28   14   41 1
    29   15   20 ar
    30   15   16 ar
    31   16   17 ar
    32   16   42 1
    33   17   18 ar
    34   17   43 1
    35   18   19 ar
    36   18   21 1
    37   19   20 ar
    38   19   57 1
    39   20   44 1
    40   21   27 1
    41   21   22 1
    42   22   23 1
    43   22   45 1
    44   22   46 1
    45   23   24 1
    46   23   47 1
    47   23   48 1
    48   24   25 1
    49   25   26 1
    50   25   27 1
    51   25   28 1
    52   27   49 1
    53   27   50 1
    54   28   51 1
    55   28   52 1
    56   28   53 1
    57   29   54 1
    58   29   55 1
    59   29   56 1
