@<TRIPOS>MOLECULE
ZINC43149367
   49    51     0     0     0
SMALL
USER_CHARGES

@<TRIPOS>ATOM
      1 C1         -1.2647    1.1832    0.1814 C.3       1 <0>        -0.1243
      2 C2         -0.5841   -0.1578    0.0844 C.ar      1 <0>        -0.0615
      3 C3         -0.5690   -0.8403   -1.1165 C.ar      1 <0>        -0.0997
      4 C4          0.0557   -2.0704   -1.2064 C.ar      1 <0>        -0.0672
      5 C5          0.6672   -2.6216   -0.0952 C.ar      1 <0>        -0.0364
      6 C6          0.6553   -1.9446    1.1083 C.ar      1 <0>        -0.0559
      7 C7          0.0336   -0.7060    1.2005 C.ar      1 <0>         0.1654
      8 N1          0.0251   -0.0145    2.4171 N.am      1 <0>        -0.6810
      9 C8         -0.0564   -0.6942    3.5781 C.2       1 <0>         0.7048
     10 O1         -0.0401   -1.9100    3.5732 O.2       1 <0>        -0.5627
     11 N2         -0.1560   -0.0263    4.7445 N.am      1 <0>        -0.7326
     12 C9         -0.2446   -0.7652    6.0064 C.3       1 <0>         0.1788
     13 C10        -0.3466    0.2082    7.1523 C.ar      1 <0>        -0.0328
     14 C11         0.7949    0.6869    7.7810 C.ar      1 <0>        -0.1940
     15 C12         0.6662    1.5780    8.8275 C.ar      1 <0>         0.1435
     16 N3         -0.5243    1.9767    9.2339 N.ar      1 <0>        -0.5333
     17 C13        -1.6344    1.5433    8.6604 C.ar      1 <0>         0.3268
     18 C14        -1.5800    0.6497    7.5981 C.ar      1 <0>        -0.1732
     19 O2         -2.8377    1.9795    9.1106 O.3       1 <0>        -0.2970
     20 C15        -2.8266    2.9017   10.2021 C.3       1 <0>         0.0834
     21 C16        -2.9033    4.3585    9.6817 C.3       1 <0>        -0.1391
     22 C17        -3.4816    5.1255   10.8968 C.3       1 <0>        -0.1233
     23 C18        -4.5150    4.1526   11.5013 C.3       1 <0>        -0.1223
     24 C19        -4.0985    2.7387   11.0596 C.3       1 <0>        -0.1250
     25 N4          1.3349   -3.9388   -0.1958 N.pl3     1 <0>         0.0336
     26 O3          1.3454   -4.5323   -1.2491 O.2       1 <0>        -0.1578
     27 O4          1.8697   -4.4212    0.7752 O.3       1 <0>        -0.1520
     28 H1         -0.5495    1.9715   -0.0534 H         1 <0>         0.0845
     29 H2         -2.0934    1.2220   -0.5257 H         1 <0>         0.0833
     30 H3         -1.6436    1.3260    1.1934 H         1 <0>         0.0720
     31 H4         -1.0460   -0.4127   -1.9860 H         1 <0>         0.1526
     32 H5          0.0658   -2.6022   -2.1464 H         1 <0>         0.1556
     33 H6          1.1324   -2.3758    1.9759 H         1 <0>         0.1721
     34 H7          0.0779    0.9540    2.4249 H         1 <0>         0.4133
     35 H8         -0.1690    0.9436    4.7484 H         1 <0>         0.4015
     36 H9         -1.1279   -1.4037    5.9923 H         1 <0>         0.0867
     37 H10         0.6466   -1.3804    6.1305 H         1 <0>         0.0893
     38 H11         1.7730    0.3652    7.4552 H         1 <0>         0.1412
     39 H12         1.5511    1.9534    9.3199 H         1 <0>         0.1635
     40 H13        -2.4882    0.3013    7.1290 H         1 <0>         0.1435
     41 H14        -1.9345    2.7588   10.8119 H         1 <0>         0.0978
     42 H15        -1.9110    4.7305    9.4268 H         1 <0>         0.0719
     43 H16        -3.5748    4.4281    8.8259 H         1 <0>         0.0747
     44 H17        -2.6953    5.3440   11.6193 H         1 <0>         0.0700
     45 H18        -3.9681    6.0449   10.5712 H         1 <0>         0.0715
     46 H19        -4.5024    4.2229   12.5890 H         1 <0>         0.0696
     47 H20        -5.5110    4.3837   11.1234 H         1 <0>         0.0692
     48 H21        -4.8924    2.2836   10.4673 H         1 <0>         0.0779
     49 H22        -3.8837    2.1228   11.9329 H         1 <0>         0.0732
@<TRIPOS>BOND
     1    1    2 1
     2    1   28 1
     3    1   29 1
     4    1   30 1
     5    2    7 ar
     6    2    3 ar
     7    3    4 ar
     8    3   31 1
     9    4    5 ar
    10    4   32 1
    11    5    6 ar
    12    5   25 1
    13    6    7 ar
    14    6   33 1
    15    7    8 1
    16    8    9 am
    17    8   34 1
    18    9   10 2
    19    9   11 am
    20   11   12 1
    21   11   35 1
    22   12   13 1
    23   12   36 1
    24   12   37 1
    25   13   18 ar
    26   13   14 ar
    27   14   15 ar
    28   14   38 1
    29   15   16 ar
    30   15   39 1
    31   16   17 ar
    32   17   18 ar
    33   17   19 1
    34   18   40 1
    35   19   20 1
    36   20   24 1
    37   20   21 1
    38   20   41 1
    39   21   22 1
    40   21   42 1
    41   21   43 1
    42   22   23 1
    43   22   44 1
    44   22   45 1
    45   23   24 1
    46   23   46 1
    47   23   47 1
    48   24   48 1
    49   24   49 1
    50   25   26 2
    51   25   27 1
