@<TRIPOS>MOLECULE
ZINC67173280
   38    39     0     0     0
SMALL
USER_CHARGES

@<TRIPOS>ATOM
      1 C1         -0.0187    1.5258    0.0104 C.3       1 <0>        -0.1658
      2 C2          0.0021   -0.0041    0.0020 C.3       1 <0>        -0.1112
      3 C3          0.7421   -0.5109    1.2415 C.3       1 <0>        -0.1520
      4 C4         -1.4333   -0.5336    0.0129 C.3       1 <0>         0.0140
      5 H1         -1.9436   -0.1822    0.9096 H         1 <0>         0.1330
      6 C5         -1.4127   -2.0657    0.0041 C.3       1 <0>         0.1362
      7 N1         -2.7965   -2.5500   -0.1171 N.pl3     1 <0>        -0.6405
      8 C6         -3.6354   -1.9906   -1.1883 C.3       1 <0>         0.1267
      9 C7         -3.5511   -0.4621   -1.1232 C.3       1 <0>        -0.0210
     10 N2         -2.1435   -0.0476   -1.1769 N.4       1 <0>        -0.4995
     11 C8         -3.2960   -3.5073    0.7537 C.ar      1 <0>         0.1717
     12 C9         -3.9218   -3.1208    1.9330 C.ar      1 <0>        -0.1409
     13 C10        -4.4176   -4.0745    2.7971 C.ar      1 <0>        -0.1224
     14 C11        -4.2971   -5.4236    2.4994 C.ar      1 <0>        -0.1299
     15 C12        -3.6808   -5.8276    1.3367 C.ar      1 <0>        -0.0802
     16 C13        -3.1772   -4.8732    0.4458 C.ar      1 <0>        -0.1368
     17 C14        -2.5225   -5.2969   -0.8007 C.2       1 <0>         0.5208
     18 O1         -2.4214   -6.4874   -1.0646 O.co2     1 <0>        -0.6802
     19 O2         -2.0789   -4.4589   -1.5741 O.co2     1 <0>        -0.6843
     20 H2          1.0039    1.9031    0.0027 H         1 <0>         0.0815
     21 H3         -0.5459    1.8868   -0.8726 H         1 <0>         0.0495
     22 H4         -0.5289    1.8773    0.9072 H         1 <0>         0.0695
     23 H5          0.5123   -0.3556   -0.8948 H         1 <0>         0.0962
     24 H6          0.2319   -0.1594    2.1383 H         1 <0>         0.0649
     25 H7          0.7568   -1.6008    1.2356 H         1 <0>         0.0727
     26 H8          1.7647   -0.1336    1.2338 H         1 <0>         0.0738
     27 H9         -0.8254   -2.4193   -0.8434 H         1 <0>         0.0864
     28 H10        -0.9767   -2.4315    0.9337 H         1 <0>         0.1035
     29 H11        -3.2726   -2.3366   -2.1561 H         1 <0>         0.0869
     30 H12        -4.6690   -2.3068   -1.0469 H         1 <0>         0.1034
     31 H13        -4.0891   -0.0321   -1.9680 H         1 <0>         0.1322
     32 H14        -3.9975   -0.1128   -0.1921 H         1 <0>         0.1241
     33 H15        -2.0917    0.9595   -1.2100 H         1 <0>         0.4160
     34 H16        -4.0197   -2.0723    2.1731 H         1 <0>         0.1099
     35 H17        -4.9027   -3.7686    3.7122 H         1 <0>         0.1167
     36 H18        -4.6889   -6.1615    3.1838 H         1 <0>         0.1189
     37 H19        -3.5893   -6.8797    1.1106 H         1 <0>         0.1295
     38 H20        -1.7126   -0.4315   -2.0045 H         1 <0>         0.4267
@<TRIPOS>BOND
     1    1    2 1
     2    1   20 1
     3    1   21 1
     4    1   22 1
     5    2    3 1
     6    2    4 1
     7    2   23 1
     8    3   24 1
     9    3   25 1
    10    3   26 1
    11    4    5 1
    12    4   10 1
    13    4    6 1
    14    6    7 1
    15    6   27 1
    16    6   28 1
    17    7    8 1
    18    7   11 1
    19    8    9 1
    20    8   29 1
    21    8   30 1
    22    9   10 1
    23    9   31 1
    24    9   32 1
    25   10   33 1
    26   10   38 1
    27   11   16 ar
    28   11   12 ar
    29   12   13 ar
    30   12   34 1
    31   13   14 ar
    32   13   35 1
    33   14   15 ar
    34   14   36 1
    35   15   16 ar
    36   15   37 1
    37   16   17 1
    38   17   18 2
    39   17   19 1
