@<TRIPOS>MOLECULE
ZINC64076606
   60    64     0     0     0
SMALL
USER_CHARGES

@<TRIPOS>ATOM
      1 C1         -0.0182    1.4602    0.0740 C.3       1 <0>         0.0792
      2 N1          0.0017   -0.0045    0.0583 N.pl3     1 <0>        -0.4122
      3 C2         -1.1310   -0.7934    0.0298 C.ar      1 <0>         0.4425
      4 C3         -0.7686   -2.1360    0.0206 C.ar      1 <0>        -0.3379
      5 C4         -1.7552   -3.1059   -0.0071 C.ar      1 <0>         0.5162
      6 N2         -3.0323   -2.7184   -0.0243 N.ar      1 <0>        -0.5318
      7 C5         -3.3444   -1.4386   -0.0150 C.ar      1 <0>         0.4378
      8 N3         -2.4306   -0.4904    0.0113 N.ar      1 <0>        -0.5586
      9 N4         -1.4240   -4.4520   -0.0163 N.pl3     1 <0>        -0.5454
     10 C6         -0.0227   -4.8839   -0.1299 C.3       1 <0>         0.0917
     11 C7          0.0794   -5.9132   -1.2605 C.3       1 <0>         0.0386
     12 N5         -0.8864   -6.9943   -1.0228 N.3       1 <0>        -0.5280
     13 C8         -2.2665   -6.4919   -1.0520 C.3       1 <0>         0.0322
     14 C9         -2.4642   -5.4861    0.0933 C.3       1 <0>         0.1112
     15 C10        -0.7030   -8.0859   -1.9886 C.3       1 <0>         0.0141
     16 C11        -1.5331   -9.2719   -1.5698 C.2       1 <0>         0.4176
     17 O1         -2.2111   -9.2135   -0.5652 O.2       1 <0>        -0.4215
     18 C12        -1.5215  -10.4926   -2.3739 C.2       1 <0>        -0.2252
     19 C13        -2.2105  -11.6316   -2.1371 C.2       1 <0>        -0.0456
     20 C14        -1.9064  -12.6045   -3.1949 C.2       1 <0>         0.1215
     21 N6         -1.0718  -12.1105   -4.0538 N.2       1 <0>        -0.4079
     22 C15        -0.7414  -10.7398   -3.6461 C.3       1 <0>         0.0219
     23 C16        -2.4803  -13.9747   -3.2698 C.2       1 <0>         0.5873
     24 O2         -3.2578  -14.3548   -2.4178 O.2       1 <0>        -0.5181
     25 N7         -2.1375  -14.7944   -4.2832 N.am      1 <0>        -0.5998
     26 C17        -1.2069  -14.4665   -5.3732 C.3       1 <0>         0.1069
     27 C18        -1.1446  -15.6935   -6.3071 C.3       1 <0>        -0.1366
     28 C19        -2.4743  -16.4317   -6.0002 C.3       1 <0>        -0.1346
     29 C20        -2.6286  -16.1706   -4.4789 C.3       1 <0>         0.1026
     30 C21         0.7382   -2.1728    0.0462 C.3       1 <0>         0.0965
     31 N8          1.1407   -0.7529    0.0643 N.3       1 <0>        -0.4116
     32 H1          1.0044    1.8373    0.0912 H         1 <0>         0.1176
     33 H2         -0.5255    1.8263   -0.8186 H         1 <0>         0.0927
     34 H3         -0.5483    1.8069    0.9611 H         1 <0>         0.0861
     35 H4         -4.3869   -1.1568   -0.0294 H         1 <0>         0.2489
     36 H5          0.6078   -4.0247   -0.3590 H         1 <0>         0.1094
     37 H6          0.2980   -5.3372    0.8080 H         1 <0>         0.1024
     38 H7         -0.1417   -5.4309   -2.2127 H         1 <0>         0.0486
     39 H8          1.0879   -6.3258   -1.2869 H         1 <0>         0.1059
     40 H9         -2.4549   -6.0014   -2.0071 H         1 <0>         0.0440
     41 H10        -2.9593   -7.3241   -0.9271 H         1 <0>         0.1125
     42 H11        -2.3737   -5.9962    1.0523 H         1 <0>         0.0990
     43 H12        -3.4486   -5.0253    0.0119 H         1 <0>         0.1125
     44 H13        -1.0182   -7.7528   -2.9775 H         1 <0>         0.0780
     45 H14         0.3486   -8.3710   -2.0193 H         1 <0>         0.1197
     46 H15        -2.8770  -11.7994   -1.3040 H         1 <0>         0.1641
     47 H16        -1.0447  -10.0318   -4.4174 H         1 <0>         0.1381
     48 H17         0.3282  -10.6536   -3.4546 H         1 <0>         0.1394
     49 H18        -1.5718  -13.5996   -5.9240 H         1 <0>         0.0775
     50 H19        -0.2171  -14.2599   -4.9660 H         1 <0>         0.0766
     51 H20        -1.1084  -15.3821   -7.3510 H         1 <0>         0.0859
     52 H21        -0.2888  -16.3223   -6.0612 H         1 <0>         0.0792
     53 H22        -3.3014  -15.9959   -6.5607 H         1 <0>         0.0787
     54 H23        -2.3851  -17.4986   -6.2047 H         1 <0>         0.0899
     55 H24        -2.0232  -16.8743   -3.9075 H         1 <0>         0.0764
     56 H25        -3.6759  -16.2449   -4.1860 H         1 <0>         0.0845
     57 H26         1.0914   -2.6833    0.9421 H         1 <0>         0.0969
     58 H27         1.1222   -2.6627   -0.8486 H         1 <0>         0.1254
     59 H28         1.7033   -0.5487    0.8766 H         1 <0>         0.3641
     60 H29        -2.7057    0.4398    0.0175 H         1 <0>         0.4427
@<TRIPOS>BOND
     1    1    2 1
     2    1   32 1
     3    1   33 1
     4    1   34 1
     5    2   31 1
     6    2    3 1
     7    3    8 ar
     8    3    4 ar
     9    4    5 ar
    10    4   30 1
    11    5    6 ar
    12    5    9 1
    13    6    7 ar
    14    7    8 ar
    15    7   35 1
    16    8   60 1
    17    9   14 1
    18    9   10 1
    19   10   11 1
    20   10   36 1
    21   10   37 1
    22   11   12 1
    23   11   38 1
    24   11   39 1
    25   12   13 1
    26   12   15 1
    27   13   14 1
    28   13   40 1
    29   13   41 1
    30   14   42 1
    31   14   43 1
    32   15   16 1
    33   15   44 1
    34   15   45 1
    35   16   17 2
    36   16   18 1
    37   18   22 1
    38   18   19 2
    39   19   20 1
    40   19   46 1
    41   20   21 2
    42   20   23 1
    43   21   22 1
    44   22   47 1
    45   22   48 1
    46   23   24 2
    47   23   25 am
    48   25   29 1
    49   25   26 1
    50   26   27 1
    51   26   49 1
    52   26   50 1
    53   27   28 1
    54   27   51 1
    55   27   52 1
    56   28   29 1
    57   28   53 1
    58   28   54 1
    59   29   55 1
    60   29   56 1
    61   30   31 1
    62   30   57 1
    63   30   58 1
    64   31   59 1
