@<TRIPOS>MOLECULE
ZINC38361682
   55    60     0     0     0
SMALL
NO_CHARGES

@<TRIPOS>ATOM
      1 C1         -0.0168    1.3855    0.0097 C.ar      1 <0>        -0.1596
      2 C2          1.1666    2.0933    0.0022 C.ar      1 <0>        -0.0395
      3 C3          2.3836    1.4146   -0.0131 C.ar      1 <0>        -0.1037
      4 C4          2.4013    0.0183   -0.0208 C.ar      1 <0>         0.1472
      5 C5          1.2130   -0.6850   -0.0132 C.ar      1 <0>        -0.1910
      6 C6          0.0021   -0.0041    0.0020 C.ar      1 <0>         0.2198
      7 N1         -1.2002   -0.7184    0.0097 N.am      1 <0>        -0.5720
      8 C7         -1.3396   -2.1881    0.0091 C.3       1 <0>         0.0656
      9 C8         -2.8240   -2.3762    0.4025 C.3       1 <0>         0.0536
     10 H1         -2.9264   -2.5195    1.4782 H         1 <0>         0.1292
     11 O1         -3.4043   -1.1225   -0.0070 O.3       1 <0>        -0.3098
     12 C9         -2.4380   -0.1890    0.0248 C.2       1 <0>         0.6491
     13 O2         -2.6579    1.0055    0.0603 O.2       1 <0>        -0.4800
     14 C10        -3.4484   -3.5442   -0.3634 C.3       1 <0>         0.1228
     15 N2         -4.8135   -3.7698    0.1180 N.pl3     1 <0>        -0.2983
     16 C11        -5.9292   -3.8001   -0.6470 C.2       1 <0>        -0.0389
     17 C12        -6.9599   -4.0345    0.1984 C.2       1 <0>        -0.0472
     18 N3         -6.4313   -4.1350    1.4231 N.2       1 <0>        -0.2612
     19 N4         -5.1571   -3.9789    1.3407 N.2       1 <0>        -0.0866
     20 F1          3.5791   -0.6433   -0.0361 F         1 <0>        -0.1262
     21 C13         3.6578    2.1739   -0.0217 C.ar      1 <0>        -0.0924
     22 C14         4.6754    1.8642    0.8854 C.ar      1 <0>        -0.0502
     23 C15         5.8454    2.6019    0.8363 C.ar      1 <0>        -0.1486
     24 C16         5.9692    3.6126   -0.0999 C.ar      1 <0>         0.1638
     25 N5          4.9914    3.8822   -0.9429 N.ar      1 <0>        -0.4644
     26 C17         3.8622    3.2036   -0.9379 C.ar      1 <0>         0.1261
     27 C18         7.2413    4.4186   -0.1572 C.3       1 <0>         0.0255
     28 C19         8.3040    3.9878   -1.1700 C.3       1 <0>        -0.1223
     29 H2          8.1465    3.0874   -1.7638 H         1 <0>         0.1409
     30 C20         7.4805    5.2708   -1.4052 C.3       1 <0>        -0.1072
     31 H3          6.7098    5.3255   -2.1741 H         1 <0>         0.1540
     32 C21         8.5013    6.4252   -1.3135 C.3       1 <0>        -0.0278
     33 N6          9.8082    5.7956   -1.6342 N.4       1 <0>        -0.2736
     34 C22         9.7600    4.4447   -0.9360 C.3       1 <0>        -0.0331
     35 C23        10.8832    6.5813   -1.1127 C.1       1 <0>         0.2259
     36 N7         11.7372    7.2055   -0.6984 N.1       1 <0>        -0.4633
     37 C24         7.7106    4.9551    1.1308 C.1       1 <0>         0.2347
     38 N8          8.0728    5.3691    2.1247 N.1       1 <0>        -0.4024
     39 H4         -0.9597    1.9118    0.0260 H         1 <0>         0.1649
     40 H5          1.1503    3.1731    0.0078 H         1 <0>         0.1456
     41 H6          1.2250   -1.7650   -0.0192 H         1 <0>         0.1440
     42 H7         -1.1465   -2.5958   -0.9832 H         1 <0>         0.1092
     43 H8         -0.6812   -2.6406    0.7506 H         1 <0>         0.1201
     44 H9         -3.4726   -3.3093   -1.4276 H         1 <0>         0.1251
     45 H10        -2.8534   -4.4433   -0.2033 H         1 <0>         0.1322
     46 H11        -5.9859   -3.6641   -1.7169 H         1 <0>         0.1935
     47 H12        -8.0037   -4.1228   -0.0641 H         1 <0>         0.1932
     48 H13         4.5515    1.0697    1.6064 H         1 <0>         0.1400
     49 H14         6.6528    2.3910    1.5219 H         1 <0>         0.1386
     50 H15         3.0861    3.4508   -1.6471 H         1 <0>         0.1658
     51 H16         8.2643    7.2010   -2.0416 H         1 <0>         0.1014
     52 H17         8.5164    6.8403   -0.3058 H         1 <0>         0.0872
     53 H18         9.9646    4.5307    0.1312 H         1 <0>         0.0888
     54 H19        10.4566    3.7482   -1.4026 H         1 <0>         0.1002
     55 H20         9.9073    5.6765   -2.6312 H         1 <0>         0.2913
@<TRIPOS>BOND
     1    1    6 ar
     2    1    2 ar
     3    1   39 1
     4    2    3 ar
     5    2   40 1
     6    3    4 ar
     7    3   21 1
     8    4    5 ar
     9    4   20 1
    10    5    6 ar
    11    5   41 1
    12    6    7 1
    13    7   12 am
    14    7    8 1
    15    8    9 1
    16    8   42 1
    17    8   43 1
    18    9   10 1
    19    9   11 1
    20    9   14 1
    21   11   12 1
    22   12   13 2
    23   14   15 1
    24   14   44 1
    25   14   45 1
    26   15   19 1
    27   15   16 1
    28   16   17 2
    29   16   46 1
    30   17   18 1
    31   17   47 1
    32   18   19 2
    33   21   26 ar
    34   21   22 ar
    35   22   23 ar
    36   22   48 1
    37   23   24 ar
    38   23   49 1
    39   24   25 ar
    40   24   27 1
    41   25   26 ar
    42   26   50 1
    43   27   30 1
    44   27   28 1
    45   27   37 1
    46   28   29 1
    47   28   34 1
    48   28   30 1
    49   30   31 1
    50   30   32 1
    51   32   33 1
    52   32   51 1
    53   32   52 1
    54   33   34 1
    55   33   35 1
    56   33   55 1
    57   34   53 1
    58   34   54 1
    59   35   36 3
    60   37   38 3
