@<TRIPOS>MOLECULE
ZINC20720525
   32    35     0     0     0
SMALL
USER_CHARGES

@<TRIPOS>ATOM
      1 C1         -0.0184    1.5028    0.0103 C.3       1 <0>        -0.1146
      2 C2          0.0021   -0.0041    0.0020 C.ar      1 <0>        -0.1066
      3 C3          0.0054   -0.6731   -1.2050 C.ar      1 <0>        -0.0819
      4 C4          0.0239   -2.0571   -1.2768 C.ar      1 <0>        -0.1312
      5 C5          0.0393   -2.7591   -0.0706 C.ar      1 <0>         0.1433
      6 C6          0.0356   -2.0681    1.1478 C.ar      1 <0>        -0.1325
      7 C7          0.0229   -0.6913    1.2108 C.ar      1 <0>        -0.0483
      8 C8          0.0528   -3.1113    2.2178 C.3       1 <0>         0.0427
      9 C9          1.2988   -2.9888    3.0935 C.3       1 <0>        -0.0916
     10 C10         1.1249   -1.9377    4.1524 C.2       1 <0>         0.4191
     11 N1         -0.0166   -1.6577    4.7056 N.2       1 <0>        -0.5632
     12 C11        -1.1425   -2.3040    4.2869 C.2       1 <0>         0.3118
     13 C12        -1.1646   -3.0189    3.0940 C.2       1 <0>        -0.2784
     14 C13        -2.4304   -3.5529    2.9446 C.2       1 <0>         0.0912
     15 N2         -3.1609   -3.1854    3.9722 N.2       1 <0>        -0.2793
     16 N3         -2.3767   -2.3919    4.8255 N.pl3     1 <0>        -0.4419
     17 H1         -2.6698   -1.9806    5.6536 H         1 <0>         0.4450
     18 O1          2.2131   -1.2474    4.5506 O.3       1 <0>        -0.4497
     19 C14         0.0657   -4.4240    1.4673 C.2       1 <0>         0.5452
     20 O2          0.0796   -5.5343    1.9553 O.2       1 <0>        -0.4781
     21 N4          0.0585   -4.1250    0.1508 N.am      1 <0>        -0.6574
     22 H2          1.0042    1.8801    0.0026 H         1 <0>         0.0716
     23 H3         -0.5455    1.8639   -0.8728 H         1 <0>         0.0682
     24 H4         -0.5286    1.8543    0.9071 H         1 <0>         0.0654
     25 H5         -0.0071   -0.1011   -2.1210 H         1 <0>         0.1294
     26 H6          0.0260   -2.5710   -2.2267 H         1 <0>         0.1377
     27 H7          0.0248   -0.1697    2.1565 H         1 <0>         0.1281
     28 H8          1.4933   -3.9484    3.5726 H         1 <0>         0.1233
     29 H9          2.1506   -2.7256    2.4665 H         1 <0>         0.1174
     30 H10        -2.7627   -4.1684    2.1218 H         1 <0>         0.1810
     31 H11         2.0319   -0.5871    5.2335 H         1 <0>         0.4152
     32 H12         0.0655   -4.7890   -0.5562 H         1 <0>         0.4191
@<TRIPOS>BOND
     1    1    2 1
     2    1   22 1
     3    1   23 1
     4    1   24 1
     5    2    7 ar
     6    2    3 ar
     7    3    4 ar
     8    3   25 1
     9    4    5 ar
    10    4   26 1
    11    5   21 1
    12    5    6 ar
    13    6    7 ar
    14    6    8 1
    15    7   27 1
    16    8   13 1
    17    8    9 1
    18    8   19 1
    19    9   10 1
    20    9   28 1
    21    9   29 1
    22   10   11 2
    23   10   18 1
    24   11   12 1
    25   12   16 1
    26   12   13 2
    27   13   14 1
    28   14   15 2
    29   14   30 1
    30   15   16 1
    31   16   17 1
    32   18   31 1
    33   19   20 2
    34   19   21 am
    35   21   32 1
