@<TRIPOS>MOLECULE
ZINC04852830
   33    35     0     0     0
SMALL
USER_CHARGES
methyl methyl-oxo-BLAHcarboxylate
@<TRIPOS>ATOM
      1 C1         -2.7113    3.2207    9.5321 C.3       1 <0>        -0.1431
      2 C2         -2.2132    2.3310    8.3915 C.3       1 <0>         0.3255
      3 C3         -0.6813    2.2432    8.4455 C.3       1 <0>        -0.1697
      4 C4         -0.2543    1.2358    7.3657 C.3       1 <0>         0.1847
      5 H1          0.8319    1.1742    7.2978 H         1 <0>         0.1266
      6 C5         -0.8549    1.6711    6.0475 C.ar      1 <0>        -0.2031
      7 C6         -0.2568    1.2592    4.8754 C.ar      1 <0>         0.0030
      8 C7         -0.8010    1.6316    3.6439 C.ar      1 <0>        -0.1638
      9 C8         -1.9498    2.4277    3.6086 C.ar      1 <0>        -0.0180
     10 C9         -2.5400    2.8323    4.7825 C.ar      1 <0>        -0.1612
     11 C10        -1.9930    2.4623    6.0115 C.ar      1 <0>         0.1860
     12 O1         -2.5948    2.9035    7.1440 O.3       1 <0>        -0.3113
     13 C11        -0.1641    1.1926    2.3884 C.2       1 <0>         0.5125
     14 O2          0.8371    0.5050    2.4231 O.2       1 <0>        -0.5070
     15 O3         -0.6923    1.5541    1.2026 O.3       1 <0>        -0.3558
     16 C12        -0.0127    1.0858    0.0080 C.3       1 <0>         0.0368
     17 N1         -0.8509   -0.0652    7.7110 N.am      1 <0>        -0.7288
     18 C13        -2.0828   -0.1127    8.2451 C.2       1 <0>         0.7140
     19 O4         -2.5845   -1.1983    8.4646 O.2       1 <0>        -0.5827
     20 N2         -2.7796    0.9939    8.5455 N.am      1 <0>        -0.7310
     21 H2         -3.7975    3.2986    9.4844 H         1 <0>         0.0796
     22 H3         -2.4201    2.7840   10.4874 H         1 <0>         0.0904
     23 H4         -2.2713    4.2135    9.4373 H         1 <0>         0.0872
     24 H5         -0.2448    3.2200    8.2370 H         1 <0>         0.1124
     25 H6         -0.3627    1.8954    9.4282 H         1 <0>         0.1061
     26 H7          0.6329    0.6480    4.9095 H         1 <0>         0.1432
     27 H8         -2.3756    2.7208    2.6603 H         1 <0>         0.1484
     28 H9         -3.4297    3.4439    4.7531 H         1 <0>         0.1441
     29 H10         0.0021   -0.0041    0.0020 H         1 <0>         0.0649
     30 H11         1.0099    1.4631    0.0003 H         1 <0>         0.0650
     31 H12        -0.5399    1.4469   -0.8751 H         1 <0>         0.1047
     32 H13        -0.3564   -0.8847    7.5539 H         1 <0>         0.4210
     33 H14        -3.6872    0.9029    8.8753 H         1 <0>         0.4194
@<TRIPOS>BOND
     1    1    2 1
     2    1   21 1
     3    1   22 1
     4    1   23 1
     5    2   12 1
     6    2   20 1
     7    2    3 1
     8    3    4 1
     9    3   24 1
    10    3   25 1
    11    4    5 1
    12    4    6 1
    13    4   17 1
    14    6   11 ar
    15    6    7 ar
    16    7    8 ar
    17    7   26 1
    18    8    9 ar
    19    8   13 1
    20    9   10 ar
    21    9   27 1
    22   10   11 ar
    23   10   28 1
    24   11   12 1
    25   13   14 2
    26   13   15 1
    27   15   16 1
    28   16   29 1
    29   16   30 1
    30   16   31 1
    31   17   18 am
    32   17   32 1
    33   18   19 2
    34   18   20 am
    35   20   33 1
