@<TRIPOS>MOLECULE
ZINC62271511
   49    52     0     0     0
SMALL
USER_CHARGES

@<TRIPOS>ATOM
      1 C1         -0.0144    1.3775   -0.0008 C.ar      1 <0>        -0.0611
      2 C2          1.1686    2.0860   -0.0016 C.ar      1 <0>        -0.1342
      3 C3          2.3835    1.4119   -0.0199 C.ar      1 <0>         0.1773
      4 C4          2.4095    0.0227   -0.0379 C.ar      1 <0>        -0.1125
      5 C5          1.2291   -0.6901   -0.0371 C.ar      1 <0>        -0.0803
      6 C6          0.0092   -0.0160   -0.0184 C.ar      1 <0>        -0.0743
      7 C7         -1.2623   -0.7807   -0.0170 C.2       1 <0>         0.0907
      8 C8         -2.5157   -0.2525   -0.0057 C.2       1 <0>         0.0296
      9 N1         -3.3808   -1.3047   -0.0095 N.pl3     1 <0>        -0.3993
     10 C9         -2.6434   -2.4416   -0.0217 C.cat     1 <0>         0.3148
     11 N2         -1.3824   -2.1252   -0.0327 N.pl3     1 <0>        -0.4758
     12 C10        -3.2360   -3.8314   -0.0273 C.3       1 <0>        -0.0705
     13 C11        -4.7101   -3.7260    0.3831 C.3       1 <0>        -0.1318
     14 C12        -5.3851   -2.6242   -0.4389 C.3       1 <0>        -0.1485
     15 C13        -4.8452   -1.2578   -0.0028 C.3       1 <0>         0.0904
     16 N3          3.5825    2.1330   -0.0207 N.am      1 <0>        -0.6737
     17 C14         4.6575    1.6538    0.6360 C.2       1 <0>         0.5277
     18 O1          4.6118    0.5594    1.1569 O.2       1 <0>        -0.5130
     19 C15         5.9164    2.4777    0.7230 C.3       1 <0>        -0.1571
     20 C16         6.9752    1.7090    1.5159 C.3       1 <0>         0.1454
     21 N4          8.1990    2.5100    1.6005 N.pl3     1 <0>        -0.3549
     22 C17         8.8436    2.8575    2.7340 C.2       1 <0>         0.1575
     23 C18         9.9240    3.5936    2.3849 C.2       1 <0>        -0.1952
     24 C19         9.9402    3.6995    0.9903 C.2       1 <0>         0.1211
     25 N5          8.9100    3.0452    0.5187 N.2       1 <0>        -0.2704
     26 N6         10.9135    4.1830    3.3146 N.pl3     1 <0>         0.0698
     27 O2         10.7931    4.0227    4.5069 O.2       1 <0>        -0.1674
     28 O3         11.8422    4.8248    2.8818 O.3       1 <0>        -0.1525
     29 H1         -0.9584    1.9019    0.0179 H         1 <0>         0.1388
     30 H2          1.1509    3.1658    0.0116 H         1 <0>         0.1436
     31 H3          3.3549   -0.4991   -0.0528 H         1 <0>         0.1527
     32 H4          1.2498   -1.7698   -0.0515 H         1 <0>         0.1254
     33 H5         -2.7744    0.7960    0.0047 H         1 <0>         0.2244
     34 H6         -3.1624   -4.2585   -1.0274 H         1 <0>         0.1276
     35 H7         -2.7009   -4.4621    0.6827 H         1 <0>         0.1255
     36 H8         -5.2089   -4.6770    0.1962 H         1 <0>         0.1097
     37 H9         -4.7763   -3.4816    1.4433 H         1 <0>         0.0859
     38 H10        -5.1725   -2.7782   -1.4968 H         1 <0>         0.0890
     39 H11        -6.4624   -2.6578   -0.2762 H         1 <0>         0.1165
     40 H12        -5.1988   -1.0289    1.0025 H         1 <0>         0.1199
     41 H13        -5.1893   -0.4908   -0.6967 H         1 <0>         0.1251
     42 H14         3.6401    2.9778   -0.4939 H         1 <0>         0.4213
     43 H15         6.2893    2.6786   -0.2813 H         1 <0>         0.1217
     44 H16         5.6996    3.4205    1.2254 H         1 <0>         0.1123
     45 H17         6.6023    1.5081    2.5203 H         1 <0>         0.1186
     46 H18         7.1920    0.7663    1.0136 H         1 <0>         0.1104
     47 H19         8.5495    2.5956    3.7396 H         1 <0>         0.2072
     48 H20        10.6785    4.2263    0.4038 H         1 <0>         0.2135
     49 H21        -0.6450   -2.7552   -0.0475 H         1 <0>         0.4593
@<TRIPOS>BOND
     1    1    6 ar
     2    1    2 ar
     3    1   29 1
     4    2    3 ar
     5    2   30 1
     6    3    4 ar
     7    3   16 1
     8    4    5 ar
     9    4   31 1
    10    5    6 ar
    11    5   32 1
    12    6    7 1
    13    7   11 1
    14    7    8 2
    15    8    9 1
    16    8   33 1
    17    9   15 1
    18    9   10 1
    19   10   11 2
    20   10   12 1
    21   11   49 1
    22   12   13 1
    23   12   34 1
    24   12   35 1
    25   13   14 1
    26   13   36 1
    27   13   37 1
    28   14   15 1
    29   14   38 1
    30   14   39 1
    31   15   40 1
    32   15   41 1
    33   16   17 am
    34   16   42 1
    35   17   18 2
    36   17   19 1
    37   19   20 1
    38   19   43 1
    39   19   44 1
    40   20   21 1
    41   20   45 1
    42   20   46 1
    43   21   25 1
    44   21   22 1
    45   22   23 2
    46   22   47 1
    47   23   24 1
    48   23   26 1
    49   24   25 2
    50   24   48 1
    51   26   27 2
    52   26   28 1
