@<TRIPOS>MOLECULE
ZINC40156030
   58    60     0     0     0
SMALL
USER_CHARGES

@<TRIPOS>ATOM
      1 C1         -0.0184    1.5028    0.0103 C.3       1 <0>        -0.1135
      2 C2          0.0021   -0.0041    0.0020 C.2       1 <0>         0.2532
      3 C3         -1.2021   -0.7171    0.0038 C.2       1 <0>        -0.1871
      4 C4         -1.1688   -2.0754   -0.0041 C.2       1 <0>         0.2249
      5 N1          0.0346   -2.7057   -0.0137 N.pl3     1 <0>        -0.3237
      6 C5          1.1925   -1.9800   -0.0152 C.2       1 <0>         0.4648
      7 N2          1.1506   -0.6427   -0.0124 N.2       1 <0>        -0.4581
      8 N3          2.2019   -2.8442   -0.0252 N.2       1 <0>        -0.5229
      9 C6          1.7281   -4.0882   -0.0300 C.2       1 <0>         0.2514
     10 N4          0.4105   -4.0554   -0.0234 N.2       1 <0>        -0.3109
     11 S1          2.7098   -5.5513   -0.0439 S.3       1 <0>         0.0392
     12 C7          4.4159   -4.9350   -0.0485 C.3       1 <0>        -0.1468
     13 C8         -2.4485   -2.8714   -0.0019 C.3       1 <0>        -0.1245
     14 C9         -2.5203    0.0130    0.0151 C.3       1 <0>        -0.0855
     15 C10        -2.8925    0.3561    1.4345 C.2       1 <0>         0.5180
     16 O1         -2.1594    0.0390    2.3472 O.2       1 <0>        -0.5156
     17 N5         -4.0399    1.0154    1.6898 N.am      1 <0>        -0.7297
     18 C11        -4.4017    1.3490    3.0696 C.3       1 <0>         0.1357
     19 C12        -5.1246    0.1609    3.7110 C.3       1 <0>        -0.1593
     20 C13        -5.5695    0.5440    5.1240 C.3       1 <0>        -0.0120
     21 N6         -6.4783    1.6948    5.0596 N.4       1 <0>        -0.3777
     22 C14        -5.7706    2.8583    4.5119 C.3       1 <0>        -0.0113
     23 C15        -5.3334    2.5643    3.0753 C.3       1 <0>        -0.1536
     24 C16        -6.9636    2.0098    6.4099 C.3       1 <0>         0.0543
     25 C17        -5.7756    2.3470    7.3131 C.3       1 <0>        -0.1792
     26 C18        -7.9111    3.2093    6.3444 C.3       1 <0>        -0.1775
     27 C19        -7.7096    0.8011    6.9786 C.3       1 <0>        -0.1781
     28 H1          1.0042    1.8801    0.0026 H         1 <0>         0.0947
     29 H2         -0.5455    1.8639   -0.8728 H         1 <0>         0.0954
     30 H3         -0.5286    1.8543    0.9071 H         1 <0>         0.0893
     31 H4          5.1067   -5.7781   -0.0570 H         1 <0>         0.1196
     32 H5          4.5787   -4.3228   -0.9355 H         1 <0>         0.0935
     33 H6          4.5874   -4.3338    0.8444 H         1 <0>         0.0929
     34 H7         -2.7625   -3.0573   -1.0290 H         1 <0>         0.1026
     35 H8         -2.2842   -3.8219    0.5056 H         1 <0>         0.0955
     36 H9         -3.2243   -2.3105    0.5193 H         1 <0>         0.0897
     37 H10        -2.4333    0.9291   -0.5693 H         1 <0>         0.1235
     38 H11        -3.2917   -0.6230   -0.4192 H         1 <0>         0.1177
     39 H12        -4.6262    1.2691    0.9598 H         1 <0>         0.4089
     40 H13        -3.5001    1.5783    3.6376 H         1 <0>         0.1061
     41 H14        -5.9975   -0.1000    3.1127 H         1 <0>         0.0912
     42 H15        -4.4485   -0.6926    3.7611 H         1 <0>         0.1160
     43 H16        -6.0844   -0.2997    5.5836 H         1 <0>         0.1365
     44 H17        -4.6959    0.8045    5.7215 H         1 <0>         0.1334
     45 H18        -6.4340    3.7232    4.5196 H         1 <0>         0.1392
     46 H19        -4.8927    3.0695    5.1224 H         1 <0>         0.1340
     47 H20        -4.8066    3.4287    2.6710 H         1 <0>         0.1205
     48 H21        -6.2107    2.3532    2.4638 H         1 <0>         0.0950
     49 H22        -5.2441    3.2082    6.9080 H         1 <0>         0.0821
     50 H23        -6.1357    2.5807    8.3150 H         1 <0>         0.1052
     51 H24        -5.1006    1.4925    7.3598 H         1 <0>         0.0822
     52 H25        -8.7575    2.9690    5.7010 H         1 <0>         0.0817
     53 H26        -8.2712    3.4430    7.3463 H         1 <0>         0.1061
     54 H27        -7.3797    4.0704    5.9393 H         1 <0>         0.0824
     55 H28        -7.0346   -0.0535    7.0252 H         1 <0>         0.0823
     56 H29        -8.0697    1.0348    7.9805 H         1 <0>         0.1062
     57 H30        -8.5560    0.5608    6.3351 H         1 <0>         0.0816
     58 H31        -7.2629    1.4698    4.4665 H         1 <0>         0.4203
@<TRIPOS>BOND
     1    1    2 1
     2    1   28 1
     3    1   29 1
     4    1   30 1
     5    2    7 2
     6    2    3 1
     7    3    4 2
     8    3   14 1
     9    4    5 1
    10    4   13 1
    11    5   10 1
    12    5    6 1
    13    6    7 1
    14    6    8 2
    15    8    9 1
    16    9   10 2
    17    9   11 1
    18   11   12 1
    19   12   31 1
    20   12   32 1
    21   12   33 1
    22   13   34 1
    23   13   35 1
    24   13   36 1
    25   14   15 1
    26   14   37 1
    27   14   38 1
    28   15   16 2
    29   15   17 am
    30   17   18 1
    31   17   39 1
    32   18   23 1
    33   18   19 1
    34   18   40 1
    35   19   20 1
    36   19   41 1
    37   19   42 1
    38   20   21 1
    39   20   43 1
    40   20   44 1
    41   21   22 1
    42   21   24 1
    43   21   58 1
    44   22   23 1
    45   22   45 1
    46   22   46 1
    47   23   47 1
    48   23   48 1
    49   24   25 1
    50   24   26 1
    51   24   27 1
    52   25   49 1
    53   25   50 1
    54   25   51 1
    55   26   52 1
    56   26   53 1
    57   26   54 1
    58   27   55 1
    59   27   56 1
    60   27   57 1
