@<TRIPOS>MOLECULE
ZINC13193073
   64    66     0     0     0
SMALL
USER_CHARGES
5-(diethylsulfamoyl)-2-[4-(2-morpholino-2-oxo-ethyl)piperazin-1-yl]benzoic acid
@<TRIPOS>ATOM
      1 C1         -7.8327   -1.9765   -2.8722 C.3       1 <0>        -0.1734
      2 C2         -6.5616   -1.1965   -2.5303 C.3       1 <0>         0.1166
      3 N1         -6.4274   -1.0953   -1.0749 N.pl3     1 <0>        -0.9955
      4 C3         -7.1124   -0.0230   -0.3490 C.3       1 <0>         0.1095
      5 C4         -6.2483    1.2395   -0.3693 C.3       1 <0>        -0.1775
      6 S1         -5.5014   -2.1931   -0.2505 S.o2      1 <0>         2.6878
      7 O1         -5.4448   -3.3626   -1.0557 O.2       1 <0>        -0.9454
      8 O2         -5.9854   -2.2107    1.0854 O.2       1 <0>        -0.9601
      9 C5         -3.8633   -1.5475   -0.1842 C.ar      1 <0>        -0.6821
     10 C6         -3.4835   -0.7386    0.8756 C.ar      1 <0>        -0.0173
     11 C7         -2.2043   -0.2263    0.9403 C.ar      1 <0>        -0.1847
     12 C8         -1.2858   -0.5188   -0.0605 C.ar      1 <0>         0.1449
     13 C9         -1.6689   -1.3329   -1.1384 C.ar      1 <0>        -0.0960
     14 C10        -2.9671   -1.8495   -1.1854 C.ar      1 <0>         0.0287
     15 C11        -0.7075   -1.6457   -2.2095 C.2       1 <0>         0.4886
     16 O3          0.4215   -1.1986   -2.1621 O.co2     1 <0>        -0.6041
     17 N2          0.0021   -0.0041    0.0020 N.pl3     1 <0>        -0.4644
     18 C12        -0.0179    1.4653    0.0101 C.3       1 <0>         0.0396
     19 C13         1.4190    1.9924   -0.0008 C.3       1 <0>         0.0006
     20 C14         2.1578    0.0025    1.1624 C.3       1 <0>         0.0069
     21 C15         0.7209   -0.5246    1.1733 C.3       1 <0>         0.0365
     22 C16         3.5006    2.0165    1.2367 C.3       1 <0>        -0.0253
     23 C17         3.4366    3.5007    1.4898 C.2       1 <0>         0.5046
     24 O4          2.3617    4.0507    1.6039 O.2       1 <0>        -0.5260
     25 N3          4.5739    4.2170    1.5895 N.am      1 <0>        -0.5952
     26 C18         5.8897    3.5708    1.4608 C.3       1 <0>         0.0605
     27 C19         6.7148    4.3642    0.4348 C.3       1 <0>         0.0446
     28 O5          6.7196    5.7453    0.8041 O.3       1 <0>        -0.3716
     29 C20         5.4278    6.3575    0.7974 C.3       1 <0>         0.0455
     30 C21         4.5367    5.6671    1.8363 C.3       1 <0>         0.0742
     31 H1         -7.7720   -2.9764   -2.4426 H         1 <0>         0.0641
     32 H2         -8.6990   -1.4570   -2.4627 H         1 <0>         0.0578
     33 H3         -7.9325   -2.0518   -3.9550 H         1 <0>         0.0706
     34 H4         -6.6223   -0.1966   -2.9599 H         1 <0>         0.0807
     35 H5         -5.6953   -1.7160   -2.9398 H         1 <0>         0.0868
     36 H6         -8.0702    0.1846   -0.8261 H         1 <0>         0.0855
     37 H7         -7.2799   -0.3320    0.6828 H         1 <0>         0.0923
     38 H8         -5.2905    1.0320    0.1078 H         1 <0>         0.0548
     39 H9         -6.0809    1.5486   -1.4011 H         1 <0>         0.0621
     40 H10        -6.7580    2.0374    0.1708 H         1 <0>         0.0686
     41 H11        -4.1939   -0.5078    1.6557 H         1 <0>         0.1366
     42 H12        -1.9166    0.4030    1.7695 H         1 <0>         0.1221
     43 H13        -3.2685   -2.4805   -2.0085 H         1 <0>         0.1552
     44 H14        -0.5445    1.8267   -0.8732 H         1 <0>         0.1211
     45 H15        -0.5275    1.8172    0.9071 H         1 <0>         0.0563
     46 H16         1.9202    1.6632   -0.9110 H         1 <0>         0.1429
     47 H17         1.4070    3.0818    0.0344 H         1 <0>         0.1413
     48 H18         2.6844   -0.3589    2.0457 H         1 <0>         0.1322
     49 H19         2.6675   -0.3497    0.2656 H         1 <0>         0.1495
     50 H20         0.2197   -0.1954    2.0835 H         1 <0>         0.0558
     51 H21         0.7329   -1.6140    1.1381 H         1 <0>         0.1246
     52 H22         4.0461    1.5329    2.0470 H         1 <0>         0.1572
     53 H23         4.0124    1.8307    0.2924 H         1 <0>         0.1618
     54 H24         6.3967    3.5749    2.4257 H         1 <0>         0.0958
     55 H25         5.7626    2.5444    1.1166 H         1 <0>         0.0966
     56 H26         6.2728    4.2537   -0.5554 H         1 <0>         0.0628
     57 H27         7.7374    3.9872    0.4220 H         1 <0>         0.1166
     58 H28         4.9811    6.2542   -0.1915 H         1 <0>         0.0616
     59 H29         5.5244    7.4145    1.0454 H         1 <0>         0.1164
     60 H30         3.5131    6.0296    1.7410 H         1 <0>         0.1097
     61 H31         4.9097    5.8787    2.8384 H         1 <0>         0.0893
     62 O6         -1.0799   -2.4276   -3.2420 O.co2     1 <0>        -0.7435
     63 N4          2.1236    1.4798    1.1932 N.4       1 <0>        -0.3825
     64 H32         1.6200    1.7845    2.0345 H         1 <0>         0.4270
@<TRIPOS>BOND
     1    1    2 1
     2    1   31 1
     3    1   32 1
     4    1   33 1
     5    2    3 1
     6    2   34 1
     7    2   35 1
     8    3    4 1
     9    3    6 1
    10    4    5 1
    11    4   36 1
    12    4   37 1
    13    5   38 1
    14    5   39 1
    15    5   40 1
    16    6    7 2
    17    6    8 2
    18    6    9 1
    19    9   14 ar
    20    9   10 ar
    21   10   11 ar
    22   10   41 1
    23   11   12 ar
    24   11   42 1
    25   12   13 ar
    26   12   17 1
    27   13   14 ar
    28   13   15 1
    29   14   43 1
    30   15   16 2
    31   15   62 1
    32   17   21 1
    33   17   18 1
    34   18   19 1
    35   18   44 1
    36   18   45 1
    37   19   46 1
    38   19   47 1
    39   19   63 1
    40   20   21 1
    41   20   48 1
    42   20   49 1
    43   20   63 1
    44   21   50 1
    45   21   51 1
    46   22   23 1
    47   22   52 1
    48   22   53 1
    49   22   63 1
    50   23   24 2
    51   23   25 am
    52   25   30 1
    53   25   26 1
    54   26   27 1
    55   26   54 1
    56   26   55 1
    57   27   28 1
    58   27   56 1
    59   27   57 1
    60   28   29 1
    61   29   30 1
    62   29   58 1
    63   29   59 1
    64   30   60 1
    65   30   61 1
    66   63   64 1
