@<TRIPOS>MOLECULE
ZINC61712741
   37    39     0     0     0
SMALL
USER_CHARGES

@<TRIPOS>ATOM
      1 C1         -0.0170    1.4055    0.0098 C.ar      1 <0>        -0.0039
      2 C2          1.1738    2.0675    0.0020 C.ar      1 <0>        -0.2195
      3 C3          2.3749    1.3443   -0.0134 C.ar      1 <0>         0.4464
      4 N1          2.3861    0.0271   -0.0210 N.ar      1 <0>        -0.5403
      5 C4          1.2484   -0.6766   -0.0139 C.ar      1 <0>         0.2266
      6 C5          0.0021   -0.0041    0.0020 C.ar      1 <0>        -0.1793
      7 C6         -1.1875   -0.7488    0.0089 C.ar      1 <0>         0.0473
      8 C7         -1.1305   -2.1096    0.0006 C.ar      1 <0>        -0.7003
      9 C8          0.0942   -2.7731   -0.0142 C.ar      1 <0>        -0.0143
     10 C9          1.2669   -2.0818   -0.0226 C.ar      1 <0>        -0.1239
     11 S1         -2.6251   -3.0427    0.0092 S.o2      1 <0>         2.7099
     12 O1         -2.3050   -4.3173    0.5498 O.2       1 <0>        -0.9479
     13 O2         -3.6239   -2.2046    0.5742 O.2       1 <0>        -0.9513
     14 N2         -3.0552   -3.2930   -1.5702 N.pl3     1 <0>        -1.0112
     15 C10        -3.9075   -2.4034   -2.3799 C.3       1 <0>         0.1245
     16 C11        -3.5101   -2.7011   -3.8473 C.3       1 <0>        -0.1653
     17 C12        -3.2628   -4.2321   -3.7985 C.3       1 <0>         0.0948
     18 H1         -2.5603   -4.5341   -4.5753 H         1 <0>         0.0798
     19 C13        -2.6451   -4.4359   -2.3992 C.3       1 <0>         0.1245
     20 O3         -4.4933   -4.9473   -3.9263 O.3       1 <0>        -0.5576
     21 N3          3.5793    2.0319   -0.0212 N.pl3     1 <0>        -0.5607
     22 N4          4.7589    1.3431   -0.0361 N.3       1 <0>        -0.5966
     23 H2         -0.9515    1.9467    0.0260 H         1 <0>         0.1481
     24 H3          1.1925    3.1473    0.0072 H         1 <0>         0.1405
     25 H4         -2.1430   -0.2455    0.0211 H         1 <0>         0.1444
     26 H5          0.1136   -3.8529   -0.0198 H         1 <0>         0.1428
     27 H6          2.2081   -2.6114   -0.0347 H         1 <0>         0.1422
     28 H7         -4.9600   -2.6353   -2.2174 H         1 <0>         0.0780
     29 H8         -3.7060   -1.3602   -2.1366 H         1 <0>         0.0759
     30 H9         -4.3248   -2.4585   -4.5296 H         1 <0>         0.0893
     31 H10        -2.6005   -2.1669   -4.1218 H         1 <0>         0.0858
     32 H11        -1.5581   -4.4692   -2.4730 H         1 <0>         0.0823
     33 H12        -3.0177   -5.3627   -1.9631 H         1 <0>         0.0875
     34 H13        -4.9552   -4.7894   -4.7610 H         1 <0>         0.3829
     35 H14         3.5841    3.0018   -0.0160 H         1 <0>         0.4140
     36 H15         4.7984    0.7107   -0.8213 H         1 <0>         0.3475
     37 H16         5.5461    1.9743   -0.0403 H         1 <0>         0.3573
@<TRIPOS>BOND
     1    1    6 ar
     2    1    2 ar
     3    1   23 1
     4    2    3 ar
     5    2   24 1
     6    3    4 ar
     7    3   21 1
     8    4    5 ar
     9    5   10 ar
    10    5    6 ar
    11    6    7 ar
    12    7    8 ar
    13    7   25 1
    14    8    9 ar
    15    8   11 1
    16    9   10 ar
    17    9   26 1
    18   10   27 1
    19   11   12 2
    20   11   13 2
    21   11   14 1
    22   14   19 1
    23   14   15 1
    24   15   16 1
    25   15   28 1
    26   15   29 1
    27   16   17 1
    28   16   30 1
    29   16   31 1
    30   17   18 1
    31   17   19 1
    32   17   20 1
    33   19   32 1
    34   19   33 1
    35   20   34 1
    36   21   22 1
    37   21   35 1
    38   22   36 1
    39   22   37 1
