@<TRIPOS>MOLECULE
ZINC64006726
   61    64     0     0     0
SMALL
USER_CHARGES

@<TRIPOS>ATOM
      1 C1         -0.0473    1.7348    0.1866 C.3       1 <0>        -0.1683
      2 C2          0.0753    0.2240   -0.0221 C.3       1 <0>         0.0614
      3 H1         -0.9130   -0.2298   -0.0947 H         1 <0>         0.1226
      4 C3          0.8833   -0.0719   -1.2662 C.2       1 <0>         0.1238
      5 N1          2.0667   -0.4080   -0.9128 N.2       1 <0>        -0.4807
      6 C4          2.1757   -0.3721    0.5502 C.3       1 <0>         0.2462
      7 H2          2.6932    0.5340    0.8651 H         1 <0>         0.1040
      8 O1          0.8241   -0.3728    1.0565 O.3       1 <0>        -0.3560
      9 C5          2.9152   -1.5886    1.0445 C.ar      1 <0>        -0.1152
     10 C6          3.1338   -2.6568    0.1965 C.ar      1 <0>        -0.0629
     11 C7          3.8118   -3.7735    0.6493 C.ar      1 <0>        -0.1403
     12 C8          4.2737   -3.8250    1.9519 C.ar      1 <0>        -0.0731
     13 C9          4.0590   -2.7605    2.8048 C.ar      1 <0>        -0.1753
     14 C10         3.3827   -1.6347    2.3515 C.ar      1 <0>         0.1853
     15 N2          3.1684   -0.5540    3.2100 N.pl3     1 <0>        -1.0666
     16 S1          4.3170   -0.1467    4.3313 S.o2      1 <0>         2.7828
     17 O2          3.8800    1.0604    4.9404 O.2       1 <0>        -0.9611
     18 O3          4.5883   -1.3233    5.0805 O.2       1 <0>        -0.9601
     19 N3          5.7036    0.2165    3.5020 N.pl3     1 <0>        -1.0074
     20 C11         5.9562    1.5914    3.0638 C.3       1 <0>         0.0928
     21 C12         6.6778   -0.8371    3.2066 C.3       1 <0>         0.0805
     22 C13         0.3794    0.0141   -2.6838 C.3       1 <0>         0.1836
     23 N4          1.4571   -0.3475   -3.6080 N.am      1 <0>        -0.7131
     24 C14         1.2352   -0.3414   -4.9373 C.2       1 <0>         0.5237
     25 O4          0.1434   -0.0364   -5.3685 O.2       1 <0>        -0.5328
     26 C15         2.3438   -0.7134   -5.8880 C.3       1 <0>        -0.1157
     27 C16         1.8398   -0.6274   -7.3056 C.2       1 <0>         0.0847
     28 C17         1.9637    0.4216   -8.1504 C.ar      1 <0>        -0.1602
     29 C18         2.5799    1.7461   -8.0074 C.ar      1 <0>        -0.0123
     30 C19         2.5444    2.6025   -9.0536 C.ar      1 <0>        -0.1501
     31 C20         1.9350    2.2579  -10.2678 C.ar      1 <0>         0.0535
     32 C21         1.3480    1.0601  -10.4751 C.ar      1 <0>        -0.2088
     33 C22         1.3270    0.0819   -9.4430 C.ar      1 <0>         0.3302
     34 N5          0.8290   -1.1300   -9.3990 N.pl3     1 <0>        -0.5819
     35 C23         1.0991   -1.6990   -8.0739 C.3       1 <0>         0.0639
     36 H3          0.9477    2.1720    0.2696 H         1 <0>         0.0610
     37 H4         -0.5692    2.1776   -0.6617 H         1 <0>         0.0791
     38 H5         -0.6078    1.9309    1.1007 H         1 <0>         0.0828
     39 H6          2.7745   -2.6198   -0.8213 H         1 <0>         0.1281
     40 H7          3.9808   -4.6076   -0.0157 H         1 <0>         0.1286
     41 H8          4.8026   -4.6989    2.3025 H         1 <0>         0.1351
     42 H9          4.4196   -2.8015    3.8220 H         1 <0>         0.1636
     43 H10         2.3467   -0.0420    3.1495 H         1 <0>         0.4276
     44 H11         6.4986    2.1272    3.8428 H         1 <0>         0.0654
     45 H12         6.5508    1.5782    2.1504 H         1 <0>         0.0757
     46 H13         5.0070    2.0919    2.8722 H         1 <0>         0.0686
     47 H14         6.4395   -1.2931    2.2457 H         1 <0>         0.0570
     48 H15         7.6781   -0.4060    3.1662 H         1 <0>         0.0806
     49 H16         6.6404   -1.5959    3.9882 H         1 <0>         0.0852
     50 H17        -0.4570   -0.6726   -2.8144 H         1 <0>         0.1092
     51 H18         0.0495    1.0321   -2.8910 H         1 <0>         0.1084
     52 H19         2.3303   -0.5915   -3.2631 H         1 <0>         0.4195
     53 H20         3.1802   -0.0267   -5.7574 H         1 <0>         0.1394
     54 H21         2.6737   -1.7314   -5.6808 H         1 <0>         0.1426
     55 H22         3.0542    2.0327   -7.0804 H         1 <0>         0.1585
     56 H23         2.9972    3.5776   -8.9505 H         1 <0>         0.1577
     57 H24         1.9347    2.9805  -11.0705 H         1 <0>         0.1611
     58 H25         0.8916    0.8436  -11.4296 H         1 <0>         0.1610
     59 H26         1.7179   -2.5916   -8.1650 H         1 <0>         0.1743
     60 H27         0.1617   -1.9404   -7.5728 H         1 <0>         0.1768
     61 H28         0.3633   -1.5773  -10.1229 H         1 <0>         0.4561
@<TRIPOS>BOND
     1    1    2 1
     2    1   36 1
     3    1   37 1
     4    1   38 1
     5    2    3 1
     6    2    8 1
     7    2    4 1
     8    4    5 2
     9    4   22 1
    10    5    6 1
    11    6    7 1
    12    6    8 1
    13    6    9 1
    14    9   14 ar
    15    9   10 ar
    16   10   11 ar
    17   10   39 1
    18   11   12 ar
    19   11   40 1
    20   12   13 ar
    21   12   41 1
    22   13   14 ar
    23   13   42 1
    24   14   15 1
    25   15   16 1
    26   15   43 1
    27   16   17 2
    28   16   18 2
    29   16   19 1
    30   19   20 1
    31   19   21 1
    32   20   44 1
    33   20   45 1
    34   20   46 1
    35   21   47 1
    36   21   48 1
    37   21   49 1
    38   22   23 1
    39   22   50 1
    40   22   51 1
    41   23   24 am
    42   23   52 1
    43   24   25 2
    44   24   26 1
    45   26   27 1
    46   26   53 1
    47   26   54 1
    48   27   35 1
    49   27   28 2
    50   28   33 ar
    51   28   29 ar
    52   29   30 ar
    53   29   55 1
    54   30   31 ar
    55   30   56 1
    56   31   32 ar
    57   31   57 1
    58   32   33 ar
    59   32   58 1
    60   33   34 2
    61   34   35 1
    62   34   61 1
    63   35   59 1
    64   35   60 1
