@<TRIPOS>MOLECULE
ZINC39558340
   50    52     0     0     0
SMALL
USER_CHARGES

@<TRIPOS>ATOM
      1 C1          1.1276   -0.5442   -0.5978 C.ar      1 <0>        -0.0505
      2 C2          2.3120    0.1673   -0.6141 C.ar      1 <0>        -0.2455
      3 C3          2.3834    1.4143   -0.0058 C.ar      1 <0>         0.1658
      4 C4          1.2635    1.9455    0.6183 C.ar      1 <0>        -0.1736
      5 C5          0.0756    1.2286    0.6326 C.ar      1 <0>         0.2980
      6 C6          0.0110   -0.0186    0.0226 C.ar      1 <0>        -0.2730
      7 N1         -1.0538    1.7593    1.2601 N.2       1 <0>        -1.1061
      8 S1         -2.4711    0.9030    1.2766 S.o2      1 <0>         2.7162
      9 O1         -2.9161    0.8282   -0.0708 O.2       1 <0>        -1.0556
     10 O2         -2.2370   -0.2545    2.0670 O.2       1 <0>        -1.0591
     11 N2         -3.5854    1.8162    2.0931 N.pl3     1 <0>        -1.2498
     12 N3          3.5828    2.1334   -0.0221 N.am      1 <0>        -0.6608
     13 C7          3.5613    3.4776   -0.1168 C.2       1 <0>         0.5419
     14 O3          2.5004    4.0711   -0.1033 O.2       1 <0>        -0.4782
     15 C8          4.8271    4.2299   -0.2372 C.ar      1 <0>        -0.1374
     16 C9          6.0472    3.5512   -0.2589 C.ar      1 <0>         0.0220
     17 C10         7.2250    4.2594   -0.3719 C.ar      1 <0>        -0.6871
     18 C11         7.2007    5.6403   -0.4637 C.ar      1 <0>         0.0104
     19 C12         5.9968    6.3202   -0.4425 C.ar      1 <0>        -0.1386
     20 C13         4.8087    5.6234   -0.3356 C.ar      1 <0>         0.0628
     21 Cl1         3.2974    6.4775   -0.3168 Cl        1 <0>        -0.0061
     22 S2          8.7653    3.4041   -0.3988 S.o2      1 <0>         2.6923
     23 O4          9.7515    4.3297    0.0369 O.2       1 <0>        -0.9509
     24 O5          8.5497    2.1586    0.2504 O.2       1 <0>        -0.9472
     25 N4          9.1064    3.0595   -1.9823 N.pl3     1 <0>        -0.9947
     26 C14         8.6454    1.8045   -2.5914 C.3       1 <0>         0.1177
     27 C15         7.8653    2.1334   -3.8682 C.3       1 <0>        -0.1393
     28 C16         8.7363    2.9946   -4.7857 C.3       1 <0>        -0.1174
     29 C17         9.0820    4.3074   -4.0791 C.3       1 <0>        -0.1381
     30 C18         9.8706    4.0058   -2.8065 C.3       1 <0>         0.1193
     31 H1          1.0736   -1.5116   -1.0749 H         1 <0>         0.1065
     32 H2          3.1832   -0.2465   -1.1000 H         1 <0>         0.1046
     33 H3          1.3166    2.9145    1.0922 H         1 <0>         0.1306
     34 H4         -0.9133   -0.5771    0.0333 H         1 <0>         0.0973
     35 H5         -4.5266    1.7483    1.8683 H         1 <0>         0.4020
     36 H6         -3.2970    2.4191    2.7961 H         1 <0>         0.4078
     37 H7          4.4301    1.6646    0.0348 H         1 <0>         0.4009
     38 H8          6.0684    2.4738   -0.1870 H         1 <0>         0.1498
     39 H9          8.1265    6.1894   -0.5521 H         1 <0>         0.1518
     40 H10         5.9851    7.3977   -0.5142 H         1 <0>         0.1508
     41 H11         9.5046    1.1810   -2.8386 H         1 <0>         0.0782
     42 H12         7.9967    1.2760   -1.8928 H         1 <0>         0.0926
     43 H13         7.6001    1.2088   -4.3809 H         1 <0>         0.0786
     44 H14         6.9582    2.6797   -3.6097 H         1 <0>         0.0692
     45 H15         9.6545    2.4576   -5.0238 H         1 <0>         0.0649
     46 H16         8.1927    3.2096   -5.7057 H         1 <0>         0.0655
     47 H17         9.6828    4.9301   -4.7420 H         1 <0>         0.0763
     48 H18         8.1634    4.8332   -3.8187 H         1 <0>         0.0680
     49 H19        10.0301    4.9293   -2.2498 H         1 <0>         0.0904
     50 H20        10.8320    3.5659   -3.0716 H         1 <0>         0.0768
@<TRIPOS>BOND
     1    1    6 ar
     2    1    2 ar
     3    1   31 1
     4    2    3 ar
     5    2   32 1
     6    3    4 ar
     7    3   12 1
     8    4    5 ar
     9    4   33 1
    10    5    6 ar
    11    5    7 1
    12    6   34 1
    13    7    8 1
    14    8    9 2
    15    8   10 2
    16    8   11 1
    17   11   35 1
    18   11   36 1
    19   12   13 am
    20   12   37 1
    21   13   14 2
    22   13   15 1
    23   15   20 ar
    24   15   16 ar
    25   16   17 ar
    26   16   38 1
    27   17   18 ar
    28   17   22 1
    29   18   19 ar
    30   18   39 1
    31   19   20 ar
    32   19   40 1
    33   20   21 1
    34   22   23 2
    35   22   24 2
    36   22   25 1
    37   25   30 1
    38   25   26 1
    39   26   27 1
    40   26   41 1
    41   26   42 1
    42   27   28 1
    43   27   43 1
    44   27   44 1
    45   28   29 1
    46   28   45 1
    47   28   46 1
    48   29   30 1
    49   29   47 1
    50   29   48 1
    51   30   49 1
    52   30   50 1
