@<TRIPOS>MOLECULE
ZINC63666855
   63    67     0     0     0
SMALL
USER_CHARGES

@<TRIPOS>ATOM
      1 C1         -0.0184    1.5028    0.0103 C.3       1 <0>        -0.1619
      2 C2          0.0021   -0.0041    0.0020 C.ar      1 <0>         0.0880
      3 C3          0.0052   -0.6723   -1.2353 C.ar      1 <0>         0.0324
      4 C4          0.0225   -2.0166   -1.3352 C.ar      1 <0>        -0.1338
      5 C5          0.0395   -2.8342   -0.1143 C.ar      1 <0>         0.3276
      6 N1          0.0572   -4.1196    0.0898 N.pl3     1 <0>        -0.4670
      7 C6          0.0671   -4.3349    1.5422 C.3       1 <0>         0.2571
      8 H1         -0.8177   -4.8959    1.8433 H         1 <0>         0.2408
      9 N2          0.0528   -3.0023    2.1585 N.pl3     1 <0>        -0.4813
     10 C7          0.0367   -2.1268    1.1953 C.ar      1 <0>         0.3234
     11 C8          0.0221   -0.6575    1.1810 C.ar      1 <0>        -0.1684
     12 C9          1.3324   -5.0910    1.9524 C.3       1 <0>        -0.1573
     13 C10         1.3512   -6.4610    1.2716 C.3       1 <0>         0.1132
     14 N3          2.5628   -7.1849    1.6644 N.am      1 <0>        -0.7405
     15 C11         2.7940   -8.4226    1.1835 C.2       1 <0>         0.5308
     16 O1          1.9991   -8.9370    0.4257 O.2       1 <0>        -0.5147
     17 C12         4.0403   -9.1673    1.5876 C.3       1 <0>        -0.1091
     18 C13         5.2748   -8.3724    1.1531 C.3       1 <0>        -0.1004
     19 C14         6.5359   -9.1619    1.5114 C.3       1 <0>         0.0507
     20 N4          6.5077  -10.4651    0.8353 N.3       1 <0>        -0.4798
     21 C15         5.3566  -11.2653    1.2724 C.3       1 <0>         0.0392
     22 C16         4.0603  -10.5387    0.9069 C.3       1 <0>        -0.0927
     23 C17         7.7657  -11.1942    1.0449 C.3       1 <0>         0.2067
     24 H2          8.6224  -10.6023    0.7229 H         1 <0>         0.1565
     25 N5          7.7412  -12.5156    0.3767 N.2       1 <0>        -0.1113
     26 N6          8.0747  -13.5196    0.9749 N.2       1 <0>        -0.1405
     27 C18         8.5141  -13.4472    2.3872 C.3       1 <0>         0.2905
     28 H3          9.5973  -13.5357    2.4711 H         1 <0>         0.1564
     29 S1          7.9447  -11.7369    2.8031 S.3       1 <0>        -0.3193
     30 N7          7.8356  -14.4521    3.2094 N.am      1 <0>        -0.6017
     31 C19         8.1762  -15.8796    3.2213 C.3       1 <0>         0.1057
     32 C20         7.5325  -16.4462    4.5063 C.3       1 <0>        -0.1318
     33 C21         6.3708  -15.4531    4.7413 C.3       1 <0>        -0.1523
     34 C22         6.8249  -14.1841    4.0542 C.2       1 <0>         0.5156
     35 O2          6.3451  -13.0854    4.2370 O.2       1 <0>        -0.4910
     36 H4          1.0042    1.8801    0.0026 H         1 <0>         0.1320
     37 H5         -0.5455    1.8639   -0.8728 H         1 <0>         0.1150
     38 H6         -0.5286    1.8543    0.9071 H         1 <0>         0.1113
     39 H7         -0.0072   -0.0852   -2.1417 H         1 <0>         0.2046
     40 H8          0.0235   -2.4895   -2.3062 H         1 <0>         0.2085
     41 H9          0.0234   -0.1048    2.1088 H         1 <0>         0.2041
     42 H10         2.2106   -4.5218    1.6477 H         1 <0>         0.1212
     43 H11         1.3422   -5.2227    3.0344 H         1 <0>         0.1522
     44 H12         0.4730   -7.0302    1.5763 H         1 <0>         0.0955
     45 H13         1.3414   -6.3293    0.1896 H         1 <0>         0.0704
     46 H14         3.1985   -6.7735    2.2705 H         1 <0>         0.4094
     47 H15         4.0521   -9.2975    2.6697 H         1 <0>         0.1056
     48 H16         5.2417   -8.2088    0.0759 H         1 <0>         0.0827
     49 H17         5.2885   -7.4115    1.6674 H         1 <0>         0.0729
     50 H18         7.4163   -8.6052    1.1905 H         1 <0>         0.0903
     51 H19         6.5754   -9.3132    2.5902 H         1 <0>         0.0560
     52 H20         5.3805  -12.2363    0.7778 H         1 <0>         0.0839
     53 H21         5.4016  -11.4067    2.3522 H         1 <0>         0.0748
     54 H22         3.2063  -11.1254    1.2453 H         1 <0>         0.0812
     55 H23         4.0081  -10.4091   -0.1742 H         1 <0>         0.0832
     56 H24         7.7618  -16.3735    2.3425 H         1 <0>         0.0848
     57 H25         9.2580  -16.0090    3.2526 H         1 <0>         0.0873
     58 H26         7.1555  -17.4555    4.3413 H         1 <0>         0.0996
     59 H27         8.2375  -16.4256    5.3374 H         1 <0>         0.0872
     60 H28         5.4517  -15.8276    4.2906 H         1 <0>         0.1095
     61 H29         6.2296  -15.2766    5.8076 H         1 <0>         0.1065
     62 H30         0.0625   -4.8090   -0.5926 H         1 <0>         0.4954
     63 H31         0.0549   -2.8096    3.1091 H         1 <0>         0.4951
@<TRIPOS>BOND
     1    1    2 1
     2    1   36 1
     3    1   37 1
     4    1   38 1
     5    2   11 ar
     6    2    3 ar
     7    3    4 ar
     8    3   39 1
     9    4    5 ar
    10    4   40 1
    11    5   10 ar
    12    5    6 2
    13    6    7 1
    14    6   62 1
    15    7    8 1
    16    7    9 1
    17    7   12 1
    18    9   10 2
    19    9   63 1
    20   10   11 ar
    21   11   41 1
    22   12   13 1
    23   12   42 1
    24   12   43 1
    25   13   14 1
    26   13   44 1
    27   13   45 1
    28   14   15 am
    29   14   46 1
    30   15   16 2
    31   15   17 1
    32   17   22 1
    33   17   18 1
    34   17   47 1
    35   18   19 1
    36   18   48 1
    37   18   49 1
    38   19   20 1
    39   19   50 1
    40   19   51 1
    41   20   21 1
    42   20   23 1
    43   21   22 1
    44   21   52 1
    45   21   53 1
    46   22   54 1
    47   22   55 1
    48   23   24 1
    49   23   29 1
    50   23   25 1
    51   25   26 2
    52   26   27 1
    53   27   28 1
    54   27   29 1
    55   27   30 1
    56   30   34 am
    57   30   31 1
    58   31   32 1
    59   31   56 1
    60   31   57 1
    61   32   33 1
    62   32   58 1
    63   32   59 1
    64   33   34 1
    65   33   60 1
    66   33   61 1
    67   34   35 2
