@<TRIPOS>MOLECULE
ZINC64230495
   47    50     0     0     0
SMALL
USER_CHARGES

@<TRIPOS>ATOM
      1 C1         -0.0174    1.5051    0.0056 C.3       1 <0>        -0.0885
      2 C2          0.0023   -0.0018   -0.0019 C.2       1 <0>         0.1026
      3 C3          0.0087   -0.8220   -1.1443 C.2       1 <0>        -0.2564
      4 C4          0.0271   -2.1060   -0.7380 C.2       1 <0>         0.0502
      5 O1          0.0322   -2.1164    0.6037 O.3       1 <0>        -0.0725
      6 N1          0.0220   -0.7720    1.0490 N.2       1 <0>        -0.3109
      7 C5          0.0391   -3.3183   -1.6332 C.3       1 <0>         0.2101
      8 N2          1.4241   -3.6932   -1.9289 N.am      1 <0>        -0.7450
      9 C6          1.6810   -4.7559   -2.7171 C.2       1 <0>         0.7158
     10 O2          0.7683   -5.4580   -3.1074 O.2       1 <0>        -0.5800
     11 N3          2.9495   -5.0403   -3.0726 N.am      1 <0>        -0.6275
     12 C7          4.0726   -4.2732   -2.5167 C.3       1 <0>         0.1177
     13 C8          4.9231   -3.7365   -3.6722 C.3       1 <0>        -0.1515
     14 C9          5.3418   -4.8991   -4.5751 C.3       1 <0>         0.1686
     15 C10         4.0955   -5.5660   -5.1618 C.3       1 <0>        -0.1514
     16 C11         3.2360   -6.1272   -4.0188 C.3       1 <0>         0.1360
     17 N4          6.1829   -4.3938   -5.6630 N.am      1 <0>        -0.5350
     18 C12         7.4946   -4.7812   -5.9264 C.ar      1 <0>         0.0907
     19 C13         8.3621   -5.6773   -5.3204 C.ar      1 <0>        -0.1057
     20 C14         9.6360   -5.8492   -5.8253 C.ar      1 <0>        -0.1070
     21 C15        10.0506   -5.1304   -6.9335 C.ar      1 <0>        -0.1092
     22 C16         9.1938   -4.2354   -7.5436 C.ar      1 <0>        -0.1041
     23 C17         7.9126   -4.0566   -7.0444 C.ar      1 <0>         0.0875
     24 N5          6.8419   -3.2514   -7.4256 N.am      1 <0>        -0.6451
     25 H1          6.8340   -2.6342   -8.1738 H         1 <0>         0.4346
     26 C18         5.8177   -3.4802   -6.5820 C.2       1 <0>         0.6823
     27 O3          4.7286   -2.9405   -6.6394 O.2       1 <0>        -0.5496
     28 H2          1.0054    1.8818   -0.0015 H         1 <0>         0.0913
     29 H3         -0.5437    1.8659   -0.8781 H         1 <0>         0.0900
     30 H4         -0.5281    1.8573    0.9018 H         1 <0>         0.0840
     31 H5          0.0001   -0.4815   -2.1692 H         1 <0>         0.1638
     32 H6         -0.4620   -4.1458   -1.1310 H         1 <0>         0.0970
     33 H7         -0.4815   -3.0886   -2.5629 H         1 <0>         0.1060
     34 H8          2.1563   -3.1766   -1.5575 H         1 <0>         0.3996
     35 H9          3.6898   -3.4402   -1.9270 H         1 <0>         0.0822
     36 H10         4.6808   -4.9212   -1.8856 H         1 <0>         0.0782
     37 H11         4.3406   -3.0188   -4.2499 H         1 <0>         0.0896
     38 H12         5.8118   -3.2474   -3.2733 H         1 <0>         0.0823
     39 H13         5.9031   -5.6285   -3.9911 H         1 <0>         0.1017
     40 H14         3.5208   -4.8311   -5.7254 H         1 <0>         0.0889
     41 H15         4.3952   -6.3791   -5.8230 H         1 <0>         0.0827
     42 H16         3.7774   -6.9233   -3.5077 H         1 <0>         0.0726
     43 H17         2.3011   -6.5178   -4.4206 H         1 <0>         0.1036
     44 H18         8.0424   -6.2392   -4.4553 H         1 <0>         0.1295
     45 H19        10.3117   -6.5471   -5.3534 H         1 <0>         0.1343
     46 H20        11.0484   -5.2700   -7.3225 H         1 <0>         0.1344
     47 H21         9.5210   -3.6759   -8.4075 H         1 <0>         0.1316
@<TRIPOS>BOND
     1    1    2 1
     2    1   28 1
     3    1   29 1
     4    1   30 1
     5    2    6 2
     6    2    3 1
     7    3    4 2
     8    3   31 1
     9    4    5 1
    10    4    7 1
    11    5    6 1
    12    7    8 1
    13    7   32 1
    14    7   33 1
    15    8    9 am
    16    8   34 1
    17    9   10 2
    18    9   11 am
    19   11   16 1
    20   11   12 1
    21   12   13 1
    22   12   35 1
    23   12   36 1
    24   13   14 1
    25   13   37 1
    26   13   38 1
    27   14   15 1
    28   14   17 1
    29   14   39 1
    30   15   16 1
    31   15   40 1
    32   15   41 1
    33   16   42 1
    34   16   43 1
    35   17   26 am
    36   17   18 1
    37   18   23 ar
    38   18   19 ar
    39   19   20 ar
    40   19   44 1
    41   20   21 ar
    42   20   45 1
    43   21   22 ar
    44   21   46 1
    45   22   23 ar
    46   22   47 1
    47   23   24 1
    48   24   25 1
    49   24   26 am
    50   26   27 2
