@<TRIPOS>MOLECULE
ZINC30553847
   31    32     0     0     0
SMALL
USER_CHARGES

@<TRIPOS>ATOM
      1 C1         -0.0184    1.5028    0.0103 C.3       1 <0>        -0.1147
      2 C2          0.0021   -0.0041    0.0020 C.ar      1 <0>        -0.1273
      3 C3          0.0057   -0.6875   -1.2002 C.ar      1 <0>        -0.0520
      4 C4          0.0239   -2.0682   -1.2115 C.ar      1 <0>        -0.1743
      5 C5          0.0392   -2.7716   -0.0134 C.ar      1 <0>         0.2227
      6 C6          0.0359   -2.0833    1.1927 C.ar      1 <0>        -0.1917
      7 C7          0.0229   -0.7009    1.1974 C.ar      1 <0>         0.0160
      8 Cl1         0.0260    0.1613    2.7041 Cl        1 <0>        -0.0614
      9 N1          0.0572   -4.1682   -0.0220 N.pl3     1 <0>        -0.5346
     10 N2          0.0725   -4.8760    1.1869 N.am      1 <0>        -0.5162
     11 C8          0.0899   -6.2237    1.1786 C.2       1 <0>         0.5562
     12 O1          0.0922   -6.8250    0.1220 O.2       1 <0>        -0.5018
     13 C9          0.1060   -6.9700    2.4532 C.ar      1 <0>        -0.0902
     14 C10         0.0975   -6.2820    3.6685 C.ar      1 <0>        -0.1013
     15 C11         0.1128   -6.9852    4.8563 C.ar      1 <0>         0.1147
     16 C12         0.1369   -8.3727    4.8439 C.ar      1 <0>        -0.0389
     17 C13         0.1459   -9.0594    3.6425 C.ar      1 <0>        -0.0797
     18 C14         0.1240   -8.3670    2.4477 C.ar      1 <0>         0.0160
     19 Cl2         0.1274   -9.2308    0.9419 Cl        1 <0>        -0.0005
     20 Cl3         0.1565   -9.2505    6.3415 Cl        1 <0>        -0.0190
     21 F1          0.1046   -6.3216    6.0330 F         1 <0>        -0.1124
     22 H1          1.0042    1.8801    0.0026 H         1 <0>         0.0722
     23 H2         -0.5455    1.8639   -0.8728 H         1 <0>         0.0695
     24 H3         -0.5286    1.8543    0.9071 H         1 <0>         0.0710
     25 H4         -0.0061   -0.1406   -2.1314 H         1 <0>         0.1379
     26 H5          0.0260   -2.6009   -2.1510 H         1 <0>         0.1343
     27 H6          0.0474   -2.6271    2.1257 H         1 <0>         0.1239
     28 H7          0.0591   -4.6480   -0.8651 H         1 <0>         0.4393
     29 H8          0.0706   -4.3962    2.0299 H         1 <0>         0.4209
     30 H9          0.0795   -5.2022    3.6791 H         1 <0>         0.1555
     31 H10         0.1654  -10.1392    3.6392 H         1 <0>         0.1659
@<TRIPOS>BOND
     1    1    2 1
     2    1   22 1
     3    1   23 1
     4    1   24 1
     5    2    7 ar
     6    2    3 ar
     7    3    4 ar
     8    3   25 1
     9    4    5 ar
    10    4   26 1
    11    5    6 ar
    12    5    9 1
    13    6    7 ar
    14    6   27 1
    15    7    8 1
    16    9   10 1
    17    9   28 1
    18   10   11 am
    19   10   29 1
    20   11   12 2
    21   11   13 1
    22   13   18 ar
    23   13   14 ar
    24   14   15 ar
    25   14   30 1
    26   15   16 ar
    27   15   21 1
    28   16   17 ar
    29   16   20 1
    30   17   18 ar
    31   17   31 1
    32   18   19 1
