@<TRIPOS>MOLECULE
ZINC39678896
   71    73     0     0     0
SMALL
USER_CHARGES

@<TRIPOS>ATOM
      1 C1          1.4712   -2.6887   -5.7274 C.3       1 <0>        -0.0485
      2 N1          1.0789   -3.0120   -4.3491 N.4       1 <0>        -0.3878
      3 C2          1.1607   -1.8021   -3.5201 C.3       1 <0>        -0.0542
      4 C3         -0.2992   -3.5205   -4.3387 C.3       1 <0>        -0.0101
      5 C4         -0.6649   -3.9737   -2.9239 C.3       1 <0>        -0.1489
      6 C5         -2.1003   -4.5033   -2.9130 C.3       1 <0>        -0.1296
      7 C6         -2.4660   -4.9566   -1.4982 C.3       1 <0>         0.1156
      8 N2         -3.8404   -5.4636   -1.4878 N.am      1 <0>        -0.7333
      9 C7         -4.3814   -5.9208   -0.3411 C.2       1 <0>         0.5238
     10 O1         -3.7303   -5.9124    0.6821 O.2       1 <0>        -0.5142
     11 C8         -5.7952   -6.4424   -0.3304 C.3       1 <0>        -0.1145
     12 H1         -6.3886   -5.9441   -1.0970 H         1 <0>         0.1139
     13 C9         -6.4335   -6.2379    1.0618 C.3       1 <0>         0.1084
     14 N3         -7.2628   -7.4474    1.2748 N.am      1 <0>        -0.6213
     15 C10        -6.4480   -8.5553    0.7210 C.3       1 <0>         0.1083
     16 C11        -5.8060   -7.9645   -0.5501 C.3       1 <0>        -0.0722
     17 C12        -6.6433   -8.3154   -1.7762 C.3       1 <0>        -0.1338
     18 C13        -6.5924   -9.8284   -2.0071 C.3       1 <0>        -0.0124
     19 N4         -5.1998  -10.2484   -2.2041 N.4       1 <0>        -0.5040
     20 C14        -4.4220   -9.9917   -0.9860 C.3       1 <0>        -0.0087
     21 C15        -4.3814   -8.4857   -0.7118 C.3       1 <0>        -0.1437
     22 C16        -8.4823   -7.5232    1.8436 C.2       1 <0>         0.5368
     23 O2         -9.0374   -8.5965    1.9472 O.2       1 <0>        -0.5079
     24 C17        -9.1561   -6.2743    2.3509 C.3       1 <0>         0.1253
     25 H2         -8.9950   -5.4555    1.6497 H         1 <0>         0.1080
     26 C18        -8.5896   -5.8981    3.7363 C.3       1 <0>        -0.1216
     27 C19        -9.8439   -5.3976    4.5003 C.3       1 <0>        -0.1276
     28 C20       -10.9434   -6.3343    3.9405 C.3       1 <0>         0.0784
     29 N5        -10.5970   -6.5153    2.5157 N.am      1 <0>        -0.5812
     30 C21       -11.4558   -6.8457    1.5309 C.2       1 <0>         0.5115
     31 O3        -11.0554   -6.9672    0.3926 O.2       1 <0>        -0.4803
     32 C22       -12.9136   -7.0642    1.8443 C.3       1 <0>         0.4581
     33 F1        -13.5985   -7.3948    0.6701 F         1 <0>        -0.1485
     34 F2        -13.0408   -8.1074    2.7678 F         1 <0>        -0.1601
     35 F3        -13.4547   -5.8933    2.3859 F         1 <0>        -0.1629
     36 H3          2.4938   -2.3115   -5.7351 H         1 <0>         0.1276
     37 H4          1.4105   -3.5865   -6.3425 H         1 <0>         0.1236
     38 H5          0.8003   -1.9283   -6.1272 H         1 <0>         0.1233
     39 H6          2.1833   -1.4248   -3.5278 H         1 <0>         0.1276
     40 H7          0.4899   -1.0417   -3.9199 H         1 <0>         0.1238
     41 H8          0.8697   -2.0420   -2.4974 H         1 <0>         0.1241
     42 H9         -0.9804   -2.7304   -4.6545 H         1 <0>         0.1312
     43 H10        -0.3801   -4.3650   -5.0230 H         1 <0>         0.1302
     44 H11         0.0163   -4.7639   -2.6080 H         1 <0>         0.0915
     45 H12        -0.5840   -3.1292   -2.2395 H         1 <0>         0.0942
     46 H13        -2.7815   -3.7132   -3.2289 H         1 <0>         0.0841
     47 H14        -2.1812   -5.3478   -3.5974 H         1 <0>         0.0796
     48 H15        -1.7848   -5.7467   -1.1823 H         1 <0>         0.0744
     49 H16        -2.3851   -4.1120   -0.8138 H         1 <0>         0.0770
     50 H17        -4.3611   -5.4704   -2.3062 H         1 <0>         0.4027
     51 H18        -5.6610   -6.1671    1.8274 H         1 <0>         0.1039
     52 H19        -7.0572   -5.3439    1.0662 H         1 <0>         0.0936
     53 H20        -5.6788   -8.8546    1.4329 H         1 <0>         0.0868
     54 H21        -7.0828   -9.4039    0.4662 H         1 <0>         0.0907
     55 H22        -7.6758   -8.0069   -1.6123 H         1 <0>         0.1212
     56 H23        -6.2433   -7.8004   -2.6496 H         1 <0>         0.0945
     57 H24        -7.0075  -10.3422   -1.1400 H         1 <0>         0.1356
     58 H25        -7.1764  -10.0805   -2.8922 H         1 <0>         0.1423
     59 H26        -5.1741  -11.2345   -2.4163 H         1 <0>         0.4365
     60 H27        -4.8883  -10.5018   -0.1432 H         1 <0>         0.1350
     61 H28        -3.4062  -10.3642   -1.1186 H         1 <0>         0.1392
     62 H29        -3.9002   -7.9766   -1.5469 H         1 <0>         0.0930
     63 H30        -3.8190   -8.2974    0.2028 H         1 <0>         0.1251
     64 H31        -8.1616   -6.7717    4.2280 H         1 <0>         0.0887
     65 H32        -7.8494   -5.1030    3.6473 H         1 <0>         0.1008
     66 H33        -9.7260   -5.5323    5.5755 H         1 <0>         0.1040
     67 H34       -10.0581   -4.3563    4.2597 H         1 <0>         0.0903
     68 H35       -10.9269   -7.2920    4.4608 H         1 <0>         0.0923
     69 H36       -11.9237   -5.8673    4.0348 H         1 <0>         0.0978
     70 H37        -4.7994   -9.7313   -2.9724 H         1 <0>         0.4252
     71 H38         1.6999   -3.7159   -3.9790 H         1 <0>         0.4275
@<TRIPOS>BOND
     1    1    2 1
     2    1   36 1
     3    1   37 1
     4    1   38 1
     5    2    3 1
     6    2    4 1
     7    2   71 1
     8    3   39 1
     9    3   40 1
    10    3   41 1
    11    4    5 1
    12    4   42 1
    13    4   43 1
    14    5    6 1
    15    5   44 1
    16    5   45 1
    17    6    7 1
    18    6   46 1
    19    6   47 1
    20    7    8 1
    21    7   48 1
    22    7   49 1
    23    8    9 am
    24    8   50 1
    25    9   10 2
    26    9   11 1
    27   11   12 1
    28   11   16 1
    29   11   13 1
    30   13   14 1
    31   13   51 1
    32   13   52 1
    33   14   15 1
    34   14   22 am
    35   15   16 1
    36   15   53 1
    37   15   54 1
    38   16   21 1
    39   16   17 1
    40   17   18 1
    41   17   55 1
    42   17   56 1
    43   18   19 1
    44   18   57 1
    45   18   58 1
    46   19   20 1
    47   19   59 1
    48   19   70 1
    49   20   21 1
    50   20   60 1
    51   20   61 1
    52   21   62 1
    53   21   63 1
    54   22   23 2
    55   22   24 1
    56   24   25 1
    57   24   29 1
    58   24   26 1
    59   26   27 1
    60   26   64 1
    61   26   65 1
    62   27   28 1
    63   27   66 1
    64   27   67 1
    65   28   29 1
    66   28   68 1
    67   28   69 1
    68   29   30 am
    69   30   31 2
    70   30   32 1
    71   32   33 1
    72   32   34 1
    73   32   35 1
