@<TRIPOS>MOLECULE
ZINC64074555
   66    70     0     0     0
SMALL
USER_CHARGES

@<TRIPOS>ATOM
      1 C1          0.3419    2.7510    0.0227 C.ar      1 <0>         0.0277
      2 C2          1.6272    3.1555    0.0004 C.ar      1 <0>        -0.1157
      3 C3          2.7028    2.1539   -0.0117 C.ar      1 <0>         0.3210
      4 N1          4.0005    2.2500   -0.0335 N.pl3     1 <0>        -0.4555
      5 C4          4.5437    0.8859   -0.0358 C.3       1 <0>         0.2428
      6 H1          5.1318    0.7189   -0.9382 H         1 <0>         0.2541
      7 N2          3.3884   -0.0200   -0.0125 N.pl3     1 <0>        -0.4583
      8 C5          2.3147    0.7168    0.0015 C.ar      1 <0>         0.3297
      9 C6          0.8827    0.3935    0.0261 C.ar      1 <0>        -0.1376
     10 C7         -0.0254    1.3920    0.0352 C.ar      1 <0>         0.0806
     11 Cl1        -1.7127    0.9844    0.0639 Cl        1 <0>         0.0808
     12 C8          5.4115    0.6641    1.2046 C.3       1 <0>         0.1046
     13 N3          4.6001    0.8567    2.4091 N.pl3     1 <0>        -0.7478
     14 C9          5.1652    0.7096    3.6440 C.2       1 <0>         0.5643
     15 O1          6.4943    0.5126    3.7582 O.3       1 <0>        -0.6350
     16 C10         4.3765    0.7625    4.7738 C.2       1 <0>        -0.5161
     17 C11         5.0285    0.8769    6.1205 C.3       1 <0>         0.1424
     18 N4          4.0984    1.3632    7.1260 N.pl3     1 <0>        -0.3275
     19 C12         2.8414    1.3235    7.0290 C.2       1 <0>         0.3065
     20 C13         2.1043    0.7658    5.8498 C.3       1 <0>        -0.1600
     21 C14         2.9969    0.7146    4.6419 C.2       1 <0>         0.4037
     22 O2          2.5029    0.6244    3.5338 O.2       1 <0>        -0.5822
     23 C15         1.6233   -0.6243    6.1776 C.2       1 <0>         0.5377
     24 O3          1.8600   -1.1073    7.2645 O.2       1 <0>        -0.5205
     25 N5          0.9299   -1.3306    5.2628 N.am      1 <0>        -0.7069
     26 C16         0.4623   -2.6819    5.5814 C.3       1 <0>         0.1171
     27 C17        -0.2915   -3.2571    4.3807 C.3       1 <0>        -0.0931
     28 C18        -1.5598   -2.4374    4.1344 C.3       1 <0>        -0.1164
     29 C19        -2.3136   -3.0126    2.9336 C.3       1 <0>        -0.1160
     30 C20        -2.6937   -4.4669    3.2190 C.3       1 <0>        -0.1264
     31 C21        -1.4254   -5.2866    3.4653 C.3       1 <0>        -0.1183
     32 C22        -0.6716   -4.7114    4.6660 C.3       1 <0>        -0.1164
     33 C23         4.6645    1.9436    8.3461 C.3       1 <0>        -0.0443
     34 C24         6.1760    2.1777    8.3818 C.3       1 <0>        -0.1544
     35 C25         5.5573    1.0473    9.2066 C.3       1 <0>        -0.1446
     36 H2         -0.4370    3.4990    0.0360 H         1 <0>         0.2100
     37 H3          1.8653    4.2089   -0.0090 H         1 <0>         0.2148
     38 H4          0.5581   -0.6365    0.0365 H         1 <0>         0.2113
     39 H5          5.8094   -0.3507    1.1929 H         1 <0>         0.1414
     40 H6          6.2356    1.3775    1.2037 H         1 <0>         0.1423
     41 H7          3.6616    1.0887    2.3296 H         1 <0>         0.3997
     42 H8          5.3974   -0.1035    6.4216 H         1 <0>         0.1130
     43 H9          5.8698    1.5664    6.0510 H         1 <0>         0.1224
     44 H10         2.2589    1.7165    7.8491 H         1 <0>         0.2003
     45 H11         0.7405   -0.9442    4.3935 H         1 <0>         0.4055
     46 H12         1.3174   -3.3174    5.8120 H         1 <0>         0.0752
     47 H13        -0.2037   -2.6421    6.4434 H         1 <0>         0.0798
     48 H14         0.3457   -3.2147    3.4973 H         1 <0>         0.0717
     49 H15        -2.1970   -2.4798    5.0177 H         1 <0>         0.0709
     50 H16        -1.2890   -1.4014    3.9311 H         1 <0>         0.0551
     51 H17        -3.2171   -2.4287    2.7582 H         1 <0>         0.0643
     52 H18        -1.6764   -2.9702    2.0503 H         1 <0>         0.0556
     53 H19        -3.3309   -4.5093    4.1023 H         1 <0>         0.0669
     54 H20        -3.2307   -4.8767    2.3636 H         1 <0>         0.0657
     55 H21        -1.6962   -6.3226    3.6686 H         1 <0>         0.0697
     56 H22        -0.7882   -5.2442    2.5820 H         1 <0>         0.0591
     57 H23         0.2319   -5.2953    4.8415 H         1 <0>         0.0677
     58 H24        -1.3088   -4.7538    5.5493 H         1 <0>         0.0713
     59 H25         4.0308    2.6657    8.8610 H         1 <0>         0.1755
     60 H26         6.7493    1.8997    7.4973 H         1 <0>         0.1217
     61 H27         6.5371    3.0540    8.9201 H         1 <0>         0.1340
     62 H28         5.5113    1.1800   10.2875 H         1 <0>         0.1350
     63 H29         5.7235    0.0257    8.8648 H         1 <0>         0.1170
     64 H30         4.5148    3.0723   -0.0461 H         1 <0>         0.4973
     65 H31         3.4192   -0.9895   -0.0084 H         1 <0>         0.4970
     66 H32         1.2451    1.3998    5.6311 H         1 <0>         0.1688
@<TRIPOS>BOND
     1    1   10 ar
     2    1    2 ar
     3    1   36 1
     4    2    3 ar
     5    2   37 1
     6    3    8 ar
     7    3    4 2
     8    4    5 1
     9    4   64 1
    10    5    6 1
    11    5    7 1
    12    5   12 1
    13    7    8 2
    14    7   65 1
    15    8    9 ar
    16    9   10 ar
    17    9   38 1
    18   10   11 1
    19   12   13 1
    20   12   39 1
    21   12   40 1
    22   13   14 1
    23   13   41 1
    24   14   15 1
    25   14   16 2
    26   16   21 1
    27   16   17 1
    28   17   18 1
    29   17   42 1
    30   17   43 1
    31   18   19 2
    32   18   33 1
    33   19   20 1
    34   19   44 1
    35   20   21 1
    36   20   23 1
    37   20   66 1
    38   21   22 2
    39   23   24 2
    40   23   25 am
    41   25   26 1
    42   25   45 1
    43   26   27 1
    44   26   46 1
    45   26   47 1
    46   27   32 1
    47   27   28 1
    48   27   48 1
    49   28   29 1
    50   28   49 1
    51   28   50 1
    52   29   30 1
    53   29   51 1
    54   29   52 1
    55   30   31 1
    56   30   53 1
    57   30   54 1
    58   31   32 1
    59   31   55 1
    60   31   56 1
    61   32   57 1
    62   32   58 1
    63   33   35 1
    64   33   34 1
    65   33   59 1
    66   34   35 1
    67   34   60 1
    68   34   61 1
    69   35   62 1
    70   35   63 1
