@<TRIPOS>MOLECULE
ZINC10100554
   35    37     0     0     0
SMALL
USER_CHARGES
N-(3,6-dimethylbenzothiazol-2-ylidene)tetrahydrofuran-2-carboxamide
@<TRIPOS>ATOM
      1 C1         -6.1558    3.1723    1.4947 C.3       1 <0>        -0.1134
      2 C2         -4.6926    2.8337    1.3713 C.ar      1 <0>        -0.0837
      3 C3         -4.1045    2.7125    0.1233 C.ar      1 <0>        -0.0770
      4 C4         -2.7714    2.4048   -0.0095 C.ar      1 <0>        -0.1121
      5 C5         -1.9652    2.2028    1.1219 C.ar      1 <0>         0.1184
      6 C6         -2.5891    2.3266    2.3718 C.ar      1 <0>        -0.1625
      7 C7         -3.9236    2.6298    2.5035 C.ar      1 <0>        -0.0374
      8 S1         -1.2700    2.0139    3.5177 S.3       1 <0>         0.1647
      9 C8          0.0008    1.7356    2.3709 C.2       1 <0>         0.4079
     10 N1          1.2775    1.4424    2.6084 N.2       1 <0>        -0.5822
     11 C9          2.0785    1.1010    1.6047 C.2       1 <0>         0.4795
     12 O1          1.7519    0.2125    0.8413 O.2       1 <0>        -0.4990
     13 C10         3.3918    1.8147    1.4125 C.3       1 <0>         0.0681
     14 H1          3.9834    1.7527    2.3258 H         1 <0>         0.1155
     15 C11         3.1361    3.2938    1.0513 C.3       1 <0>        -0.1427
     16 C12         4.2308    3.5665   -0.0160 C.3       1 <0>        -0.1548
     17 C13         4.3050    2.1881   -0.7200 C.3       1 <0>         0.0454
     18 O2          4.1124    1.2221    0.3256 O.3       1 <0>        -0.3543
     19 N2         -0.6197    1.8894    1.1715 N.pl3     1 <0>        -0.5339
     20 C14         0.1400    1.7287   -0.0708 C.3       1 <0>         0.0533
     21 H2         -6.7413    2.2530    1.5120 H         1 <0>         0.0767
     22 H3         -6.3238    3.7274    2.4176 H         1 <0>         0.0722
     23 H4         -6.4609    3.7813    0.6438 H         1 <0>         0.0724
     24 H5         -4.7044    2.8630   -0.7621 H         1 <0>         0.1386
     25 H6         -2.3394    2.3170   -0.9954 H         1 <0>         0.1322
     26 H7         -4.3660    2.7208    3.4845 H         1 <0>         0.1426
     27 H8          2.1402    3.4230    0.6274 H         1 <0>         0.0705
     28 H9          3.2746    3.9351    1.9217 H         1 <0>         0.0979
     29 H10         5.1817    3.8201    0.4525 H         1 <0>         0.0874
     30 H11         3.9176    4.3459   -0.7106 H         1 <0>         0.0886
     31 H12         5.2816    2.0528   -1.1848 H         1 <0>         0.0946
     32 H13         3.5149    2.1011   -1.4657 H         1 <0>         0.0607
     33 H14         0.1839    0.6723   -0.3357 H         1 <0>         0.1010
     34 H15         1.1512    2.1104    0.0698 H         1 <0>         0.0808
     35 H16        -0.3500    2.2839   -0.8707 H         1 <0>         0.0839
@<TRIPOS>BOND
     1    1    2 1
     2    1   21 1
     3    1   22 1
     4    1   23 1
     5    2    7 ar
     6    2    3 ar
     7    3    4 ar
     8    3   24 1
     9    4    5 ar
    10    4   25 1
    11    5   19 1
    12    5    6 ar
    13    6    7 ar
    14    6    8 1
    15    7   26 1
    16    8    9 1
    17    9   10 2
    18    9   19 1
    19   10   11 1
    20   11   12 2
    21   11   13 1
    22   13   14 1
    23   13   18 1
    24   13   15 1
    25   15   16 1
    26   15   27 1
    27   15   28 1
    28   16   17 1
    29   16   29 1
    30   16   30 1
    31   17   18 1
    32   17   31 1
    33   17   32 1
    34   19   20 1
    35   20   33 1
    36   20   34 1
    37   20   35 1
