@<TRIPOS>MOLECULE
ZINC20617522
   55    59     0     0     0
SMALL
USER_CHARGES
(2Z)-5-(hydroxymethyl)-8-methyl-N-(1-naphthyl)-2-phenylimino-pyrano[6,5-c]pyridine-3-carboxamide
@<TRIPOS>ATOM
      1 C1          8.6703   -1.9052    0.9736 C.3       1 <0>        -0.1181
      2 C2          7.4497   -2.7468    0.7040 C.ar      1 <0>         0.1692
      3 C3          6.2012   -2.1462    0.6243 C.ar      1 <0>         0.0544
      4 C4          5.0762   -2.9533    0.3694 C.ar      1 <0>        -0.1195
      5 C5          3.7503   -2.3383    0.2813 C.2       1 <0>         0.1510
      6 C6          3.6965   -0.9656    0.1770 C.2       1 <0>        -0.2504
      7 C7          4.9812   -0.2371    0.1715 C.2       1 <0>         0.5260
      8 N1          5.0898    0.9358   -0.4129 N.pl3     1 <0>        -0.5125
      9 C8          6.3100    1.5473   -0.4971 C.ar      1 <0>         0.0022
     10 C9          6.6901    2.4903    0.4612 C.ar      1 <0>        -0.0821
     11 C10         7.9241    3.0999    0.3723 C.ar      1 <0>        -0.1018
     12 C11         8.7808    2.7870   -0.6684 C.ar      1 <0>        -0.0675
     13 C12         8.4090    1.8575   -1.6238 C.ar      1 <0>        -0.1025
     14 C13         7.1801    1.2364   -1.5450 C.ar      1 <0>        -0.0795
     15 O1          6.0471   -0.8111    0.7867 O.3       1 <0>        -0.1851
     16 C14         2.4097   -0.2531    0.0812 C.2       1 <0>         0.5734
     17 O2          1.3665   -0.8782    0.0881 O.2       1 <0>        -0.4663
     18 N2          2.3893    1.0912   -0.0140 N.am      1 <0>        -0.6690
     19 C15         1.1718    1.7722   -0.0107 C.ar      1 <0>         0.1159
     20 C16         0.0605    1.2131   -0.6050 C.ar      1 <0>        -0.0939
     21 C17        -1.1572    1.8865   -0.6118 C.ar      1 <0>        -0.1048
     22 C18        -1.2887    3.1075   -0.0234 C.ar      1 <0>        -0.0930
     23 C19        -0.1802    3.7124    0.5928 C.ar      1 <0>        -0.0410
     24 C20         1.0664    3.0394    0.6013 C.ar      1 <0>        -0.0517
     25 C21         2.1725    3.6447    1.2180 C.ar      1 <0>        -0.1319
     26 C22         2.0344    4.8684    1.7989 C.ar      1 <0>        -0.0928
     27 C23         0.8088    5.5315    1.7908 C.ar      1 <0>        -0.1159
     28 C24        -0.2850    4.9748    1.2025 C.ar      1 <0>        -0.0885
     29 C25         5.2625   -4.3317    0.2098 C.ar      1 <0>        -0.0588
     30 C26         6.5420   -4.8380    0.3072 C.ar      1 <0>         0.1433
     31 N3          7.5736   -4.0491    0.5457 N.ar      1 <0>        -0.4162
     32 C27         4.0923   -5.2413   -0.0627 C.3       1 <0>         0.1169
     33 O3          4.5538   -6.5884   -0.1826 O.3       1 <0>        -0.5965
     34 H1          8.3734   -0.8510    1.0764 H         1 <0>         0.0822
     35 H2          9.3778   -2.0070    0.1375 H         1 <0>         0.1012
     36 H3          9.1506   -2.2433    1.9036 H         1 <0>         0.1032
     37 H4          2.8512   -2.9367    0.2942 H         1 <0>         0.2016
     38 H5          6.0208    2.7386    1.2717 H         1 <0>         0.1390
     39 H6          8.2207    3.8266    1.1142 H         1 <0>         0.1478
     40 H7          9.7440    3.2708   -0.7355 H         1 <0>         0.1457
     41 H8          9.0827    1.6181   -2.4333 H         1 <0>         0.1478
     42 H9          6.8910    0.5117   -2.2917 H         1 <0>         0.1373
     43 H10         3.3326    1.6513   -0.0943 H         1 <0>         0.3930
     44 H11         0.1370    0.2435   -1.0744 H         1 <0>         0.1432
     45 H12        -2.0132    1.4312   -1.0876 H         1 <0>         0.1365
     46 H13        -2.2431    3.6129   -0.0349 H         1 <0>         0.1375
     47 H14         3.1284    3.1422    1.2317 H         1 <0>         0.1068
     48 H15         2.8871    5.3318    2.2727 H         1 <0>         0.1280
     49 H16         0.7256    6.5014    2.2585 H         1 <0>         0.1319
     50 H17        -1.2287    5.4999    1.2045 H         1 <0>         0.1373
     51 H18         6.7029   -5.8992    0.1866 H         1 <0>         0.1980
     52 H19         3.3734   -5.1725    0.7671 H         1 <0>         0.0806
     53 H20         3.6017   -4.9371   -0.9990 H         1 <0>         0.0783
     54 H21         3.8380   -7.3992   -0.3832 H         1 <0>         0.4396
     55 H22         4.1991    1.4250   -0.8340 H         1 <0>         0.4706
@<TRIPOS>BOND
     1    1    2 1
     2    1   34 1
     3    1   35 1
     4    1   36 1
     5    2   31 ar
     6    2    3 ar
     7    3   15 1
     8    3    4 ar
     9    4    5 1
    10    4   29 ar
    11    5    6 2
    12    5   37 1
    13    6    7 1
    14    6   16 1
    15    7    8 2
    16    7   15 1
    17    8    9 1
    18    8   55 1
    19    9   14 ar
    20    9   10 ar
    21   10   11 ar
    22   10   38 1
    23   11   12 ar
    24   11   39 1
    25   12   13 ar
    26   12   40 1
    27   13   14 ar
    28   13   41 1
    29   14   42 1
    30   16   17 2
    31   16   18 am
    32   18   19 1
    33   18   43 1
    34   19   24 ar
    35   19   20 ar
    36   20   21 ar
    37   20   44 1
    38   21   22 ar
    39   21   45 1
    40   22   23 ar
    41   22   46 1
    42   23   28 ar
    43   23   24 ar
    44   24   25 ar
    45   25   26 ar
    46   25   47 1
    47   26   27 ar
    48   26   48 1
    49   27   28 ar
    50   27   49 1
    51   28   50 1
    52   29   30 ar
    53   29   32 1
    54   30   31 ar
    55   30   51 1
    56   32   33 1
    57   32   52 1
    58   32   53 1
    59   33   54 1
