@<TRIPOS>MOLECULE
ZINC06743278
   52    55     0     0     0
SMALL
USER_CHARGES

@<TRIPOS>ATOM
      1 C1         -0.8535    0.9561   -0.9388 C.3       1 <0>        -0.1180
      2 C2         -0.6877   -0.5259   -0.7210 C.ar      1 <0>        -0.0559
      3 C3         -1.6190   -1.4070   -1.2417 C.ar      1 <0>        -0.1316
      4 C4         -1.4748   -2.7658   -1.0470 C.ar      1 <0>        -0.0358
      5 C5         -0.3889   -3.2529   -0.3240 C.ar      1 <0>        -0.0439
      6 C6          0.5501   -2.3606    0.2009 C.ar      1 <0>         0.1397
      7 C7          0.3966   -0.9992   -0.0068 C.ar      1 <0>        -0.1554
      8 O1          1.6127   -2.8268    0.9075 O.3       1 <0>        -0.4923
      9 C8         -0.2296   -4.7130   -0.1113 C.2       1 <0>         0.1177
     10 C9          0.0440   -5.3478    1.1050 C.2       1 <0>        -0.1431
     11 C10         0.1037   -6.6984    0.8198 C.2       1 <0>        -0.0714
     12 N1         -0.1306   -6.8139   -0.5209 N.pl3     1 <0>        -0.3365
     13 H1         -0.1515   -7.6497   -1.0127 H         1 <0>         0.4522
     14 N2         -0.3256   -5.6511   -1.0329 N.2       1 <0>        -0.2423
     15 C11         0.3890   -7.4253    2.0619 C.2       1 <0>         0.5975
     16 O2          0.5044   -8.6330    2.1487 O.2       1 <0>        -0.5206
     17 N3          0.5048   -6.5669    3.0911 N.am      1 <0>        -0.5922
     18 C12         0.3005   -5.2052    2.5803 C.3       1 <0>         0.2555
     19 H2          1.1929   -4.6025    2.7494 H         1 <0>         0.1167
     20 C13        -0.8892   -4.5722    3.2548 C.ar      1 <0>        -0.1300
     21 C14        -2.0439   -5.3073    3.4499 C.ar      1 <0>        -0.0580
     22 C15        -3.1360   -4.7292    4.0675 C.ar      1 <0>        -0.1518
     23 C16        -3.0733   -3.4101    4.4926 C.ar      1 <0>         0.1352
     24 C17        -1.9134   -2.6748    4.2961 C.ar      1 <0>        -0.2064
     25 C18        -0.8222   -3.2591    3.6826 C.ar      1 <0>        -0.0518
     26 O3         -4.1465   -2.8390    5.1001 O.3       1 <0>        -0.3170
     27 C19        -4.0106   -1.4773    5.5114 C.3       1 <0>         0.0264
     28 C20         0.7860   -6.9283    4.4827 C.3       1 <0>         0.1662
     29 C21         2.2760   -6.9377    4.7080 C.2       1 <0>        -0.1786
     30 C22         2.7981   -6.2131    5.6665 C.2       1 <0>        -0.1676
     31 C23        -2.4920   -3.7214   -1.6157 C.3       1 <0>        -0.1129
     32 H3         -0.3500    1.2463   -1.8609 H         1 <0>         0.0742
     33 H4         -1.9141    1.1960   -1.0129 H         1 <0>         0.0695
     34 H5         -0.4162    1.4977   -0.1000 H         1 <0>         0.0686
     35 H6         -2.4617   -1.0301   -1.8023 H         1 <0>         0.1279
     36 H7          1.1228   -0.3071    0.3932 H         1 <0>         0.1315
     37 H8          2.4143   -2.9459    0.3799 H         1 <0>         0.3913
     38 H9         -2.0922   -6.3341    3.1188 H         1 <0>         0.1215
     39 H10        -4.0380   -5.3036    4.2191 H         1 <0>         0.1310
     40 H11        -1.8622   -1.6477    4.6261 H         1 <0>         0.1300
     41 H12         0.0825   -2.6884    3.5333 H         1 <0>         0.1300
     42 H13        -3.1910   -1.3934    6.2252 H         1 <0>         0.0565
     43 H14        -3.8003   -0.8543    4.6420 H         1 <0>         0.0565
     44 H15        -4.9366   -1.1453    5.9808 H         1 <0>         0.1011
     45 H16         0.3225   -6.1999    5.1480 H         1 <0>         0.0931
     46 H17         0.3810   -7.9189    4.6897 H         1 <0>         0.0979
     47 H18         2.9135   -7.5417    4.0794 H         1 <0>         0.1125
     48 H19         3.8659   -6.2198    5.8280 H         1 <0>         0.1025
     49 H20         2.1606   -5.6091    6.2951 H         1 <0>         0.1000
     50 H21        -2.1900   -4.0180   -2.6201 H         1 <0>         0.0780
     51 H22        -2.5562   -4.6044   -0.9799 H         1 <0>         0.0656
     52 H23        -3.4654   -3.2328   -1.6584 H         1 <0>         0.0670
@<TRIPOS>BOND
     1    1    2 1
     2    1   32 1
     3    1   33 1
     4    1   34 1
     5    2    7 ar
     6    2    3 ar
     7    3    4 ar
     8    3   35 1
     9    4    5 ar
    10    4   31 1
    11    5    6 ar
    12    5    9 1
    13    6    7 ar
    14    6    8 1
    15    7   36 1
    16    8   37 1
    17    9   14 2
    18    9   10 1
    19   10   18 1
    20   10   11 2
    21   11   12 1
    22   11   15 1
    23   12   13 1
    24   12   14 1
    25   15   16 2
    26   15   17 am
    27   17   18 1
    28   17   28 1
    29   18   19 1
    30   18   20 1
    31   20   25 ar
    32   20   21 ar
    33   21   22 ar
    34   21   38 1
    35   22   23 ar
    36   22   39 1
    37   23   24 ar
    38   23   26 1
    39   24   25 ar
    40   24   40 1
    41   25   41 1
    42   26   27 1
    43   27   42 1
    44   27   43 1
    45   27   44 1
    46   28   29 1
    47   28   45 1
    48   28   46 1
    49   29   30 2
    50   29   47 1
    51   30   48 1
    52   30   49 1
    53   31   50 1
    54   31   51 1
    55   31   52 1
