@<TRIPOS>MOLECULE
ZINC50818350
   31    32     0     0     0
SMALL
USER_CHARGES

@<TRIPOS>ATOM
      1 C1         -0.2229    1.2987   -0.9516 C.3       1 <0>         0.0804
      2 N1          0.0061   -0.0943   -0.5600 N.pl3     1 <0>        -0.7379
      3 C2          0.6625   -0.9659   -1.4319 C.ar      1 <0>         0.2766
      4 C3          1.2097   -0.4858   -2.6152 C.ar      1 <0>        -0.1958
      5 C4          1.8584   -1.3502   -3.4748 C.ar      1 <0>         0.0051
      6 C5          1.9636   -2.6926   -3.1588 C.ar      1 <0>        -0.1088
      7 C6          1.4197   -3.1738   -1.9823 C.ar      1 <0>         0.0292
      8 C7          0.7745   -2.3136   -1.1153 C.ar      1 <0>        -0.1988
      9 C8          0.1875   -2.8379    0.1698 C.3       1 <0>         0.1447
     10 N2         -1.2430   -3.0941   -0.0155 N.am      1 <0>        -0.5137
     11 C9         -2.1528   -2.1512    0.3440 C.2       1 <0>         0.1761
     12 C10        -3.4772   -2.4050    0.1652 C.2       1 <0>        -0.2865
     13 C11        -3.8662   -3.6304   -0.3840 C.2       1 <0>         0.2488
     14 N3         -2.9520   -4.5181   -0.7194 N.2       1 <0>        -0.5398
     15 C12        -1.6532   -4.2610   -0.5467 C.2       1 <0>         0.6251
     16 O1         -0.8268   -5.0974   -0.8704 O.2       1 <0>        -0.5184
     17 N4          2.6595   -3.6161   -4.0825 N.pl3     1 <0>         0.0423
     18 O2          3.1353   -3.1969   -5.1119 O.2       1 <0>        -0.1693
     19 O3          2.7523   -4.7898   -3.8077 O.3       1 <0>        -0.1622
     20 H1          0.7342    1.7854   -1.1395 H         1 <0>         0.0648
     21 H2         -0.8287    1.3266   -1.8573 H         1 <0>         0.0643
     22 H3         -0.7446    1.8206   -0.1494 H         1 <0>         0.0844
     23 H4         -0.2981   -0.4112    0.3048 H         1 <0>         0.3986
     24 H5          1.1276    0.5623   -2.8627 H         1 <0>         0.1492
     25 H6          2.2837   -0.9776   -4.3949 H         1 <0>         0.1560
     26 H7          1.5030   -4.2227   -1.7390 H         1 <0>         0.1612
     27 H8          0.6896   -3.7647    0.4472 H         1 <0>         0.1205
     28 H9          0.3250   -2.0996    0.9599 H         1 <0>         0.1019
     29 H10        -1.8285   -1.2118    0.7668 H         1 <0>         0.1631
     30 H11        -4.2180   -1.6702    0.4440 H         1 <0>         0.1610
     31 H12        -4.9133   -3.8491   -0.5327 H         1 <0>         0.1776
@<TRIPOS>BOND
     1    1    2 1
     2    1   20 1
     3    1   21 1
     4    1   22 1
     5    2    3 1
     6    2   23 1
     7    3    8 ar
     8    3    4 ar
     9    4    5 ar
    10    4   24 1
    11    5    6 ar
    12    5   25 1
    13    6    7 ar
    14    6   17 1
    15    7    8 ar
    16    7   26 1
    17    8    9 1
    18    9   10 1
    19    9   27 1
    20    9   28 1
    21   10   15 am
    22   10   11 1
    23   11   12 2
    24   11   29 1
    25   12   13 1
    26   12   30 1
    27   13   14 2
    28   13   31 1
    29   14   15 1
    30   15   16 2
    31   17   18 2
    32   17   19 1
