@<TRIPOS>MOLECULE
ZINC52841406
   38    39     0     0     0
SMALL
USER_CHARGES

@<TRIPOS>ATOM
      1 C1         -0.3480    1.3945    0.3166 C.3       1 <0>        -0.1460
      2 C2         -0.1415   -0.1186    0.2221 C.3       1 <0>         0.0704
      3 H1         -1.1012   -0.6244    0.3286 H         1 <0>         0.0642
      4 C3          0.4732   -0.4676   -1.1381 C.3       1 <0>         0.1149
      5 N1          0.8338   -1.8942   -1.1322 N.pl3     1 <0>        -0.6750
      6 C4          1.6317   -2.4012   -0.0045 C.3       1 <0>         0.1207
      7 C5          0.9606   -1.9580    1.3005 C.3       1 <0>         0.0992
      8 O1          0.7414   -0.5459    1.2622 O.3       1 <0>        -0.3675
      9 C6          1.8671   -2.3025    2.4840 C.3       1 <0>        -0.1394
     10 C7         -0.3802   -2.6783    1.4559 C.3       1 <0>        -0.1752
     11 C8          0.4300   -2.7441   -2.1691 C.ar      1 <0>         0.1463
     12 C9         -0.8260   -3.3307   -2.1381 C.ar      1 <0>        -0.0804
     13 C10        -1.2229   -4.1693   -3.1634 C.ar      1 <0>        -0.1053
     14 C11        -0.3704   -4.4259   -4.2211 C.ar      1 <0>        -0.0023
     15 C12         0.8840   -3.8456   -4.2599 C.ar      1 <0>        -0.1362
     16 C13         1.2878   -2.9985   -3.2390 C.ar      1 <0>         0.2154
     17 N2          2.5553   -2.4048   -3.2793 N.pl3     1 <0>        -0.8606
     18 N3         -0.8016   -5.3249   -5.3149 N.pl3     1 <0>         0.0323
     19 O2         -1.8979   -5.8336   -5.2826 O.2       1 <0>        -0.1553
     20 O3         -0.0575   -5.5506   -6.2407 O.3       1 <0>        -0.1597
     21 H2          0.6120    1.8995    0.2101 H         1 <0>         0.0648
     22 H3         -1.0198    1.7197   -0.4778 H         1 <0>         0.0723
     23 H4         -0.7834    1.6420    1.2847 H         1 <0>         0.0671
     24 H5         -0.2521   -0.2756   -1.9288 H         1 <0>         0.0793
     25 H6          1.3656    0.1360   -1.3034 H         1 <0>         0.0616
     26 H7          1.6737   -3.4897   -0.0445 H         1 <0>         0.0795
     27 H8          2.6408   -1.9923   -0.0557 H         1 <0>         0.0603
     28 H9          2.8211   -1.7869    2.3731 H         1 <0>         0.0651
     29 H10         1.3893   -1.9871    3.4115 H         1 <0>         0.0681
     30 H11         2.0368   -3.3789    2.5104 H         1 <0>         0.0723
     31 H12        -0.2060   -3.7465    1.5855 H         1 <0>         0.0659
     32 H13        -0.9038   -2.2872    2.3283 H         1 <0>         0.0642
     33 H14        -0.9861   -2.5144    0.5648 H         1 <0>         0.0622
     34 H15        -1.4942   -3.1329   -1.3130 H         1 <0>         0.1440
     35 H16        -2.2015   -4.6254   -3.1377 H         1 <0>         0.1513
     36 H17         1.5477   -4.0488   -5.0873 H         1 <0>         0.1513
     37 H18         2.8717   -1.8852   -2.5238 H         1 <0>         0.4065
     38 H19         3.1169   -2.5131   -4.0627 H         1 <0>         0.4035
@<TRIPOS>BOND
     1    1    2 1
     2    1   21 1
     3    1   22 1
     4    1   23 1
     5    2    3 1
     6    2    8 1
     7    2    4 1
     8    4    5 1
     9    4   24 1
    10    4   25 1
    11    5    6 1
    12    5   11 1
    13    6    7 1
    14    6   26 1
    15    6   27 1
    16    7    8 1
    17    7    9 1
    18    7   10 1
    19    9   28 1
    20    9   29 1
    21    9   30 1
    22   10   31 1
    23   10   32 1
    24   10   33 1
    25   11   16 ar
    26   11   12 ar
    27   12   13 ar
    28   12   34 1
    29   13   14 ar
    30   13   35 1
    31   14   15 ar
    32   14   18 1
    33   15   16 ar
    34   15   36 1
    35   16   17 1
    36   17   37 1
    37   17   38 1
    38   18   19 2
    39   18   20 1
