@<TRIPOS>MOLECULE
ZINC44910060
   46    48     0     0     0
SMALL
USER_CHARGES

@<TRIPOS>ATOM
      1 C1          0.0912   -3.1065    1.6768 C.3       1 <0>        -0.0995
      2 C2          0.0541   -1.9506    0.7106 C.2       1 <0>        -0.1115
      3 C3          0.1433   -2.1714   -0.6510 C.2       1 <0>        -0.1603
      4 C4          0.1069   -1.1097   -1.4928 C.2       1 <0>        -0.1761
      5 S1         -0.0579    0.2572   -0.3564 S.3       1 <0>         0.0709
      6 C5         -0.0727   -0.6794    1.1635 C.2       1 <0>        -0.1753
      7 C6         -0.1934   -0.1848    2.5819 C.3       1 <0>         0.2202
      8 N1         -1.5976   -0.2302    2.9971 N.am      1 <0>        -0.6251
      9 C7         -2.1044   -1.3860    3.7411 C.3       1 <0>         0.0738
     10 C8         -2.4232    0.7912    2.6946 C.2       1 <0>         0.7109
     11 O1         -1.9846    1.7873    2.1525 O.2       1 <0>        -0.5743
     12 N2         -3.7349    0.7086    2.9930 N.am      1 <0>        -0.7427
     13 C9         -4.6323    1.8189    2.6642 C.3       1 <0>         0.2320
     14 C10        -6.0342    1.4773    3.0988 C.2       1 <0>         0.1472
     15 N3         -6.9414    0.8664    2.3834 N.2       1 <0>        -0.2689
     16 N4         -8.0205    0.7330    3.0730 N.2       1 <0>        -0.2902
     17 C11        -7.8477    1.2484    4.2566 C.2       1 <0>         0.1898
     18 N5         -6.5874    1.7399    4.3034 N.pl3     1 <0>        -0.4591
     19 C12        -5.9638    2.4321    5.4316 C.3       1 <0>         0.1001
     20 C13        -6.5947    1.9442    6.7388 C.3       1 <0>        -0.1400
     21 C14        -7.8090    2.8073    7.0783 C.3       1 <0>        -0.1260
     22 C15        -8.8662    2.6967    5.9838 C.3       1 <0>        -0.1252
     23 C16        -8.8447    1.2921    5.3855 C.3       1 <0>        -0.0387
     24 H1         -0.9272   -3.4105    1.9189 H         1 <0>         0.0674
     25 H2          0.6218   -3.9432    1.2223 H         1 <0>         0.0661
     26 H3          0.6058   -2.8020    2.5881 H         1 <0>         0.0654
     27 H4          0.2409   -3.1749   -1.0383 H         1 <0>         0.1314
     28 H5          0.1633   -1.0946   -2.5713 H         1 <0>         0.1844
     29 H6          0.4007   -0.8192    3.2396 H         1 <0>         0.1024
     30 H7          0.1700    0.8412    2.6411 H         1 <0>         0.0986
     31 H8         -1.9834   -1.2114    4.8102 H         1 <0>         0.0602
     32 H9         -3.1606   -1.5298    3.5136 H         1 <0>         0.0648
     33 H10        -1.5461   -2.2768    3.4530 H         1 <0>         0.0801
     34 H11        -4.0847   -0.0861    3.4254 H         1 <0>         0.3985
     35 H12        -4.3008    2.7193    3.1813 H         1 <0>         0.0868
     36 H13        -4.6174    1.9916    1.5880 H         1 <0>         0.1046
     37 H14        -4.8948    2.2199    5.4424 H         1 <0>         0.0973
     38 H15        -6.1206    3.5060    5.3309 H         1 <0>         0.0937
     39 H16        -6.9077    0.9064    6.6251 H         1 <0>         0.0813
     40 H17        -5.8628    2.0155    7.5434 H         1 <0>         0.0907
     41 H18        -8.2346    2.4731    8.0245 H         1 <0>         0.0757
     42 H19        -7.4963    3.8472    7.1725 H         1 <0>         0.0716
     43 H20        -9.8503    2.8949    6.4084 H         1 <0>         0.0837
     44 H21        -8.6556    3.4252    5.2008 H         1 <0>         0.0653
     45 H22        -9.8347    1.0364    5.0077 H         1 <0>         0.1035
     46 H23        -8.5528    0.5802    6.1575 H         1 <0>         0.0943
@<TRIPOS>BOND
     1    1    2 1
     2    1   24 1
     3    1   25 1
     4    1   26 1
     5    2    6 2
     6    2    3 1
     7    3    4 2
     8    3   27 1
     9    4    5 1
    10    4   28 1
    11    5    6 1
    12    6    7 1
    13    7    8 1
    14    7   29 1
    15    7   30 1
    16    8    9 1
    17    8   10 am
    18    9   31 1
    19    9   32 1
    20    9   33 1
    21   10   11 2
    22   10   12 am
    23   12   13 1
    24   12   34 1
    25   13   14 1
    26   13   35 1
    27   13   36 1
    28   14   18 1
    29   14   15 2
    30   15   16 1
    31   16   17 2
    32   17   23 1
    33   17   18 1
    34   18   19 1
    35   19   20 1
    36   19   37 1
    37   19   38 1
    38   20   21 1
    39   20   39 1
    40   20   40 1
    41   21   22 1
    42   21   41 1
    43   21   42 1
    44   22   23 1
    45   22   43 1
    46   22   44 1
    47   23   45 1
    48   23   46 1
