@<TRIPOS>MOLECULE
ZINC63258752
   45    48     0     0     0
SMALL
USER_CHARGES

@<TRIPOS>ATOM
      1 C1         -0.0187    1.5258    0.0104 C.3       1 <0>        -0.1596
      2 C2          0.0021   -0.0041    0.0020 C.3       1 <0>         0.0565
      3 O1          0.6709   -0.4649   -1.1737 O.3       1 <0>        -0.3449
      4 C3          0.7755   -1.7935   -1.3341 C.2       1 <0>         0.4731
      5 O2          0.3143   -2.5404   -0.5039 O.2       1 <0>        -0.4599
      6 C4          1.4679   -2.3535   -2.5498 C.3       1 <0>         0.0103
      7 H1          2.3587   -1.7704   -2.7836 H         1 <0>         0.1919
      8 C5          0.5063   -2.3798   -3.7564 C.3       1 <0>         0.1238
      9 H2          0.9203   -1.8190   -4.5943 H         1 <0>         0.1573
     10 N1          0.4355   -3.8190   -4.0722 N.pl3     1 <0>        -0.4773
     11 N2          1.2510   -4.4876   -3.1582 N.2       1 <0>         0.1187
     12 N3          1.8165   -3.7646   -2.3397 N.2       1 <0>        -0.1299
     13 C6         -0.3089   -4.4034   -5.0946 C.2       1 <0>         0.3636
     14 C7         -0.3764   -5.8372   -5.3961 C.2       1 <0>         0.3505
     15 N4         -1.1702   -6.0044   -6.4174 N.2       1 <0>        -0.3139
     16 O3         -1.6410   -4.7289   -6.8153 O.3       1 <0>         0.0562
     17 N5         -1.0692   -3.7697   -5.9436 N.2       1 <0>        -0.3347
     18 N6          0.2915   -6.8457   -4.7104 N.pl3     1 <0>        -0.7984
     19 C8         -0.8697   -1.8355   -3.3673 C.3       1 <0>        -0.2126
     20 S1         -1.9687   -1.8831   -4.8097 S.3       1 <0>         0.1413
     21 C9         -3.5365   -1.2141   -4.1892 C.3       1 <0>         0.1727
     22 N7         -3.3259    0.1269   -3.6294 N.pl3     1 <0>        -0.4585
     23 C10        -3.6613    0.0825   -2.3724 C.ar      1 <0>         0.2905
     24 C11        -3.6694    1.0916   -1.3044 C.ar      1 <0>        -0.1376
     25 C12        -4.0791    0.7473   -0.0671 C.ar      1 <0>         0.0251
     26 C13        -4.5067   -0.5530    0.2554 C.ar      1 <0>         0.0256
     27 C14        -4.5389   -1.5526   -0.6484 C.ar      1 <0>        -0.1341
     28 C15        -4.1134   -1.2940   -2.0309 C.ar      1 <0>         0.2951
     29 N8         -4.0400   -2.0473   -3.0899 N.pl3     1 <0>        -0.4556
     30 H3          1.0039    1.9031    0.0027 H         1 <0>         0.0842
     31 H4         -0.5459    1.8868   -0.8726 H         1 <0>         0.0608
     32 H5         -0.5289    1.8773    0.9072 H         1 <0>         0.0943
     33 H6          0.5293   -0.3651    0.8851 H         1 <0>         0.0891
     34 H7         -1.0205   -0.3814    0.0098 H         1 <0>         0.0557
     35 H8          0.8637   -6.6245   -3.9590 H         1 <0>         0.4279
     36 H9          0.1853   -7.7704   -4.9835 H         1 <0>         0.4308
     37 H10        -1.2904   -2.4478   -2.5697 H         1 <0>         0.1140
     38 H11        -0.7689   -0.8069   -3.0211 H         1 <0>         0.1375
     39 H12        -4.2703   -1.1734   -4.9942 H         1 <0>         0.2669
     40 H13        -3.3495    2.1026   -1.5093 H         1 <0>         0.2051
     41 H14        -4.0794    1.5002    0.7072 H         1 <0>         0.2027
     42 H15        -4.8222   -0.7589    1.2676 H         1 <0>         0.2022
     43 H16        -4.8745   -2.5373   -0.3582 H         1 <0>         0.2035
     44 H17        -2.9968    0.9035   -4.1084 H         1 <0>         0.4955
     45 H18        -4.2752   -2.9868   -3.1433 H         1 <0>         0.4950
@<TRIPOS>BOND
     1    1    2 1
     2    1   30 1
     3    1   31 1
     4    1   32 1
     5    2    3 1
     6    2   33 1
     7    2   34 1
     8    3    4 1
     9    4    5 2
    10    4    6 1
    11    6    7 1
    12    6   12 1
    13    6    8 1
    14    8    9 1
    15    8   10 1
    16    8   19 1
    17   10   11 1
    18   10   13 1
    19   11   12 2
    20   13   17 2
    21   13   14 1
    22   14   15 2
    23   14   18 1
    24   15   16 1
    25   16   17 1
    26   18   35 1
    27   18   36 1
    28   19   20 1
    29   19   37 1
    30   19   38 1
    31   20   21 1
    32   21   29 1
    33   21   22 1
    34   21   39 1
    35   22   23 2
    36   22   44 1
    37   23   28 ar
    38   23   24 ar
    39   24   25 ar
    40   24   40 1
    41   25   26 ar
    42   25   41 1
    43   26   27 ar
    44   26   42 1
    45   27   28 ar
    46   27   43 1
    47   28   29 2
    48   29   45 1
