@<TRIPOS>MOLECULE
ZINC09418857
   67    71     0     0     0
SMALL
USER_CHARGES
cinnamyl-isopropyl-nitro-BLAHtrione
@<TRIPOS>ATOM
      1 C1          3.1987    1.4810   -1.2728 C.3       1 <0>        -0.1760
      2 C2          2.4026    1.1181   -0.0176 C.3       1 <0>         0.1290
      3 C3          3.2252    1.4629    1.2255 C.3       1 <0>        -0.1716
      4 N1          1.1485    1.8752    0.0012 N.am      1 <0>        -0.5532
      5 C4         -0.0144    1.2081    0.0087 C.2       1 <0>         0.5184
      6 O1          0.0021   -0.0041    0.0020 O.2       1 <0>        -0.4597
      7 C5         -1.3371    1.9198    0.0189 C.3       1 <0>        -0.0872
      8 C6         -2.1455    1.5175   -1.2177 C.3       1 <0>        -0.0556
      9 C7         -3.5811    1.9474   -1.0525 C.ar      1 <0>        -0.1199
     10 C8         -4.3923    1.9627   -2.1764 C.ar      1 <0>        -0.0138
     11 C9         -5.7191    2.3301   -2.0777 C.ar      1 <0>        -0.0574
     12 C10        -6.2460    2.6873   -0.8498 C.ar      1 <0>        -0.0183
     13 C11        -5.4447    2.6794    0.2714 C.ar      1 <0>        -0.1526
     14 C12        -4.1015    2.3113    0.1777 C.ar      1 <0>         0.1919
     15 N2         -3.3394    2.3295    1.3418 N.pl3     1 <0>        -0.4823
     16 C13        -2.1349    1.5015    1.2591 C.3       1 <0>         0.0904
     17 H1         -2.4180    0.4523    1.1747 H         1 <0>         0.1172
     18 C14        -1.2798    1.7028    2.5121 C.3       1 <0>        -0.0086
     19 C15        -3.2895    2.1986    3.7822 C.3       1 <0>        -0.0021
     20 C16        -4.1383    1.9879    2.5252 C.3       1 <0>         0.0256
     21 C17        -1.2760    1.4887    4.9247 C.3       1 <0>         0.0416
     22 C18        -0.7416    2.8930    5.0404 C.2       1 <0>        -0.2564
     23 C19        -0.9756    3.6032    6.1351 C.2       1 <0>        -0.0062
     24 C20        -0.4515    4.9806    6.2486 C.ar      1 <0>        -0.1021
     25 C21         0.2948    5.5342    5.2077 C.ar      1 <0>        -0.0977
     26 C22         0.7756    6.8228    5.3170 C.ar      1 <0>        -0.1203
     27 C23         0.5300    7.5612    6.4609 C.ar      1 <0>        -0.0917
     28 C24        -0.2041    7.0159    7.4991 C.ar      1 <0>        -0.1186
     29 C25        -0.6961    5.7307    7.3994 C.ar      1 <0>        -0.0875
     30 N3         -6.5768    2.3413   -3.2839 N.pl3     1 <0>         0.0253
     31 O2         -7.7476    2.6653   -3.1956 O.2       1 <0>        -0.1486
     32 O3         -6.1118    2.0265   -4.3647 O.3       1 <0>        -0.1523
     33 C26        -1.1395    3.4089    0.0340 C.2       1 <0>         0.5142
     34 O4         -2.1125    4.1319    0.0479 O.2       1 <0>        -0.4283
     35 N4          0.0820    3.9612    0.0279 N.am      1 <0>        -0.6657
     36 C27         1.1974    3.2159    0.0108 C.2       1 <0>         0.7020
     37 O5          2.2790    3.7691    0.0042 O.2       1 <0>        -0.4842
     38 H2          3.4188    2.5485   -1.2674 H         1 <0>         0.0841
     39 H3          4.1317    0.9177   -1.2867 H         1 <0>         0.0857
     40 H4          2.6126    1.2353   -2.1584 H         1 <0>         0.0613
     41 H5          2.1824    0.0506   -0.0230 H         1 <0>         0.1220
     42 H6          2.6580    1.2044    2.1197 H         1 <0>         0.0530
     43 H7          4.1582    0.8996    1.2115 H         1 <0>         0.0863
     44 H8          3.4453    2.5305    1.2309 H         1 <0>         0.0848
     45 H9         -1.7224    1.9988   -2.0994 H         1 <0>         0.1095
     46 H10        -2.1033    0.4354   -1.3418 H         1 <0>         0.1239
     47 H11        -3.9831    1.6851   -3.1366 H         1 <0>         0.1614
     48 H12        -7.2845    2.9726   -0.7698 H         1 <0>         0.1632
     49 H13        -5.8588    2.9594    1.2288 H         1 <0>         0.1539
     50 H14        -0.4031    1.0570    2.4623 H         1 <0>         0.1430
     51 H15        -0.9633    2.7440    2.5736 H         1 <0>         0.1406
     52 H16        -3.0064    3.2485    3.8577 H         1 <0>         0.1458
     53 H17        -3.8663    1.9137    4.6621 H         1 <0>         0.1488
     54 H18        -5.0184    2.6295    2.5682 H         1 <0>         0.1439
     55 H19        -4.4502    0.9452    2.4657 H         1 <0>         0.0854
     56 H20        -1.8984    1.2643    5.7909 H         1 <0>         0.1381
     57 H21        -0.4441    0.7856    4.8832 H         1 <0>         0.1382
     58 H22        -0.1679    3.3208    4.2316 H         1 <0>         0.1311
     59 H23        -1.5493    3.1753    6.9440 H         1 <0>         0.1326
     60 H24         0.4916    4.9570    4.3163 H         1 <0>         0.1186
     61 H25         1.3490    7.2544    4.5100 H         1 <0>         0.1300
     62 H26         0.9126    8.5677    6.5437 H         1 <0>         0.1317
     63 H27        -0.3927    7.5975    8.3893 H         1 <0>         0.1329
     64 H28        -1.2696    5.3064    8.2103 H         1 <0>         0.1298
     65 H29         0.1617    4.9279    0.0358 H         1 <0>         0.4426
     66 N5         -2.0873    1.3396    3.6992 N.4       1 <0>        -0.3920
     67 H30        -2.3838    0.3604    3.6128 H         1 <0>         0.4321
@<TRIPOS>BOND
     1    1    2 1
     2    1   38 1
     3    1   39 1
     4    1   40 1
     5    2    3 1
     6    2    4 1
     7    2   41 1
     8    3   42 1
     9    3   43 1
    10    3   44 1
    11    4   36 am
    12    4    5 am
    13    5    6 2
    14    5    7 1
    15    7   16 1
    16    7    8 1
    17    7   33 1
    18    8    9 1
    19    8   45 1
    20    8   46 1
    21    9   14 ar
    22    9   10 ar
    23   10   11 ar
    24   10   47 1
    25   11   12 ar
    26   11   30 1
    27   12   13 ar
    28   12   48 1
    29   13   14 ar
    30   13   49 1
    31   14   15 1
    32   15   20 1
    33   15   16 1
    34   16   17 1
    35   16   18 1
    36   18   50 1
    37   18   51 1
    38   18   66 1
    39   19   20 1
    40   19   52 1
    41   19   53 1
    42   19   66 1
    43   20   54 1
    44   20   55 1
    45   21   22 1
    46   21   56 1
    47   21   57 1
    48   21   66 1
    49   22   23 2
    50   22   58 1
    51   23   24 1
    52   23   59 1
    53   24   29 ar
    54   24   25 ar
    55   25   26 ar
    56   25   60 1
    57   26   27 ar
    58   26   61 1
    59   27   28 ar
    60   27   62 1
    61   28   29 ar
    62   28   63 1
    63   29   64 1
    64   30   31 2
    65   30   32 1
    66   33   34 2
    67   33   35 am
    68   35   36 am
    69   35   65 1
    70   36   37 2
    71   66   67 1
