@<TRIPOS>MOLECULE
ZINC09970470
   72    73     0     0     0
SMALL
USER_CHARGES
3,4,5,6-tetramethyl-6-[[3,4,5-trihydroxy-6-(hydroxymethyl)-2,3,4,5,6-pentamethyl-tetrahydropyran-2-yl]oxymethyl]tetrahydropyran-2,3,4,5-tetrol
@<TRIPOS>ATOM
      1 C1          1.1225    0.6295    3.6905 C.3       1 <0>        -0.1644
      2 C2          1.8746    0.9665    2.3959 C.3       1 <0>         0.1313
      3 C3          0.9031    1.5572    1.3821 C.3       1 <0>         0.1292
      4 C4          0.6965    3.0534    1.5381 C.3       1 <0>         0.1718
      5 C5          1.9634    3.8463    1.8072 C.3       1 <0>         0.1056
      6 C6          2.8952    3.1789    2.8102 C.3       1 <0>         0.2800
      7 O1          2.9873    1.7866    2.6494 O.3       1 <0>        -0.3749
      8 C7          2.4737    3.5549    4.2362 C.3       1 <0>        -0.1974
      9 O2          4.2158    3.7360    2.6062 O.3       1 <0>        -0.3542
     10 C8          5.2230    3.1657    3.4442 C.3       1 <0>         0.0651
     11 C9          6.5854    3.8335    3.1408 C.3       1 <0>         0.1192
     12 C10         7.6161    3.2078    4.0727 C.3       1 <0>         0.1330
     13 C11         9.0561    3.3914    3.6124 C.3       1 <0>         0.1739
     14 C12         9.2200    3.0931    2.1251 C.3       1 <0>         0.0940
     15 C13         8.1810    3.8309    1.2880 C.3       1 <0>         0.2442
     16 H1          8.2344    3.4274    0.2584 H         1 <0>         0.0920
     17 O3          6.8733    3.6099    1.7745 O.3       1 <0>        -0.3622
     18 O4          8.4849    5.2222    1.2090 O.3       1 <0>        -0.5703
     19 C14        10.6238    3.5260    1.6785 C.3       1 <0>        -0.1821
     20 O5          9.0886    1.6826    1.9058 O.3       1 <0>        -0.5155
     21 C15         9.5826    4.7850    3.9510 C.3       1 <0>        -0.1897
     22 O6          9.8695    2.4395    4.3364 O.3       1 <0>        -0.5345
     23 C16         7.4600    3.8331    5.4699 C.3       1 <0>        -0.1888
     24 O7          7.3394    1.8019    4.1880 O.3       1 <0>        -0.5236
     25 C17         6.4249    5.3286    3.4286 C.3       1 <0>        -0.1812
     26 C18         2.7228    4.1235    0.5043 C.3       1 <0>        -0.1748
     27 O8          1.5772    5.1271    2.3542 O.3       1 <0>        -0.5566
     28 C19         0.0558    3.5912    0.2409 C.3       1 <0>        -0.1816
     29 O9         -0.2434    3.2915    2.6012 O.3       1 <0>        -0.5348
     30 C20         1.3700    1.2143   -0.0377 C.3       1 <0>        -0.1981
     31 O10        -0.3754    0.9110    1.5752 O.3       1 <0>        -0.5327
     32 C21         2.3920   -0.3716    1.8162 C.3       1 <0>         0.0784
     33 O11         3.2188   -1.0217    2.7835 O.3       1 <0>        -0.5564
     34 H2          0.3366   -0.0948    3.4761 H         1 <0>         0.0692
     35 H3          1.8182    0.2069    4.4154 H         1 <0>         0.0691
     36 H4          0.6784    1.5371    4.0995 H         1 <0>         0.0711
     37 H5          3.2094    3.1744    4.9448 H         1 <0>         0.0628
     38 H6          2.4130    4.6398    4.3230 H         1 <0>         0.0803
     39 H7          1.4993    3.1179    4.4542 H         1 <0>         0.0818
     40 H8          4.9622    3.3309    4.4896 H         1 <0>         0.0631
     41 H9          5.2923    2.0950    3.2519 H         1 <0>         0.0794
     42 H10         7.8522    5.7339    0.6866 H         1 <0>         0.3869
     43 H11        11.3723    2.9750    2.2479 H         1 <0>         0.0663
     44 H12        10.7480    3.3158    0.6162 H         1 <0>         0.0639
     45 H13        10.7476    4.5946    1.8543 H         1 <0>         0.0835
     46 H14         9.1816    1.4181    0.9803 H         1 <0>         0.3703
     47 H15         9.4221    4.9866    5.0101 H         1 <0>         0.0764
     48 H16        10.6486    4.8345    3.7291 H         1 <0>         0.0716
     49 H17         9.0526    5.5282    3.3552 H         1 <0>         0.0893
     50 H18        10.8098    2.4759    4.1136 H         1 <0>         0.3689
     51 H19         6.4551    3.6387    5.8447 H         1 <0>         0.0612
     52 H20         8.1919    3.3944    6.1481 H         1 <0>         0.0778
     53 H21         7.6224    4.9090    5.4066 H         1 <0>         0.0753
     54 H22         6.4631    1.6015    4.5444 H         1 <0>         0.3668
     55 H23         6.0871    5.4666    4.4557 H         1 <0>         0.0698
     56 H24         7.3828    5.8300    3.2907 H         1 <0>         0.0725
     57 H25         5.6905    5.7535    2.7443 H         1 <0>         0.0731
     58 H26         3.0879    3.1839    0.0897 H         1 <0>         0.0704
     59 H27         2.0539    4.6011   -0.2116 H         1 <0>         0.0707
     60 H28         3.5666    4.7826    0.7088 H         1 <0>         0.0787
     61 H29         2.3197    5.7240    2.5201 H         1 <0>         0.3888
     62 H30        -0.9015    3.0967    0.0764 H         1 <0>         0.0745
     63 H31        -0.1014    4.6660    0.3319 H         1 <0>         0.0680
     64 H32         0.7178    3.3909   -0.6015 H         1 <0>         0.0714
     65 H33        -0.4273    4.2272    2.7614 H         1 <0>         0.3821
     66 H34         0.6402    1.5820   -0.7589 H         1 <0>         0.0810
     67 H35         2.3354    1.6840   -0.2260 H         1 <0>         0.0773
     68 H36         1.4664    0.1332   -0.1373 H         1 <0>         0.0735
     69 H37        -0.3472   -0.0514    1.4853 H         1 <0>         0.3719
     70 H38         1.5454   -1.0132    1.5719 H         1 <0>         0.0582
     71 H39         2.9723   -0.1766    0.9144 H         1 <0>         0.0587
     72 H40         3.5790   -1.8688    2.4873 H         1 <0>         0.3806
@<TRIPOS>BOND
     1    1    2 1
     2    1   34 1
     3    1   35 1
     4    1   36 1
     5    2    7 1
     6    2    3 1
     7    2   32 1
     8    3    4 1
     9    3   30 1
    10    3   31 1
    11    4    5 1
    12    4   28 1
    13    4   29 1
    14    5    6 1
    15    5   26 1
    16    5   27 1
    17    6    7 1
    18    6    8 1
    19    6    9 1
    20    8   37 1
    21    8   38 1
    22    8   39 1
    23    9   10 1
    24   10   11 1
    25   10   40 1
    26   10   41 1
    27   11   17 1
    28   11   12 1
    29   11   25 1
    30   12   13 1
    31   12   23 1
    32   12   24 1
    33   13   14 1
    34   13   21 1
    35   13   22 1
    36   14   15 1
    37   14   19 1
    38   14   20 1
    39   15   16 1
    40   15   17 1
    41   15   18 1
    42   18   42 1
    43   19   43 1
    44   19   44 1
    45   19   45 1
    46   20   46 1
    47   21   47 1
    48   21   48 1
    49   21   49 1
    50   22   50 1
    51   23   51 1
    52   23   52 1
    53   23   53 1
    54   24   54 1
    55   25   55 1
    56   25   56 1
    57   25   57 1
    58   26   58 1
    59   26   59 1
    60   26   60 1
    61   27   61 1
    62   28   62 1
    63   28   63 1
    64   28   64 1
    65   29   65 1
    66   30   66 1
    67   30   67 1
    68   30   68 1
    69   31   69 1
    70   32   33 1
    71   32   70 1
    72   32   71 1
    73   33   72 1
