@<TRIPOS>MOLECULE
ZINC12875170
   58    61     0     0     0
SMALL
USER_CHARGES
[[(3S,5S,8R,9S,10S,13S,14S)-3-hydroxy-10,13-dimethyl-1,2,3,4,5,6,7,8,9,11,12,14,15,16-tetradecahydrocyclopenta[a]phenanthren-17-ylidene]amino]thiourea
@<TRIPOS>ATOM
      1 C1         -1.8327   -0.7016   -4.6489 C.3       1 <0>        -0.1538
      2 C2         -1.4810    0.7749   -4.8415 C.3       1 <0>        -0.0470
      3 C3         -2.4378    1.3988   -5.8597 C.3       1 <0>        -0.1091
      4 C4         -2.3066    0.6688   -7.1978 C.3       1 <0>        -0.1538
      5 C5         -0.8689    0.7902   -7.7070 C.3       1 <0>         0.1049
      6 H1         -0.6186    1.8426   -7.8412 H         1 <0>         0.0518
      7 C6          0.0868    0.1643   -6.6893 C.3       1 <0>        -0.1098
      8 C7         -0.0433    0.8948   -5.3514 C.3       1 <0>        -0.0713
      9 H2          0.2070    1.9469   -5.4875 H         1 <0>         0.0703
     10 C8          0.9138    0.2709   -4.3341 C.3       1 <0>        -0.1158
     11 C9          0.7821    0.9981   -2.9944 C.3       1 <0>        -0.1120
     12 C10        -0.6543    0.8704   -2.4850 C.3       1 <0>        -0.0743
     13 H3         -0.9170   -0.1774   -2.3397 H         1 <0>         0.0877
     14 C11        -1.6093    1.5084   -3.5057 C.3       1 <0>        -0.0702
     15 H4         -1.3275    2.5516   -3.6481 H         1 <0>         0.0687
     16 C12        -3.0575    1.4487   -3.0317 C.3       1 <0>        -0.1190
     17 C13        -3.2180    2.0836   -1.6401 C.3       1 <0>        -0.1007
     18 C14        -2.2733    1.4014   -0.6814 C.3       1 <0>        -0.0105
     19 C15        -0.8198    1.6262   -1.1794 C.3       1 <0>        -0.0775
     20 H5         -0.6225    2.6883   -1.3249 H         1 <0>         0.0824
     21 C16        -0.0127    1.0858    0.0080 C.3       1 <0>        -0.1105
     22 C17        -0.8067    1.6199    1.2314 C.3       1 <0>        -0.1356
     23 C18        -2.2347    1.8725    0.7421 C.2       1 <0>         0.1537
     24 N1         -3.1993    2.3821    1.4119 N.2       1 <0>        -0.2799
     25 N2         -2.9983    2.7739    2.7419 N.pl3     1 <0>        -0.5413
     26 C19        -4.0139    3.3104    3.4471 C.2       1 <0>         0.6056
     27 S1         -3.7683    3.7892    5.0723 S.2       1 <0>        -0.6254
     28 N3         -5.2227    3.4700    2.8728 N.pl3     1 <0>        -0.7848
     29 C20        -2.6001   -0.0930   -0.7087 C.3       1 <0>        -0.1490
     30 O1         -0.7471    0.1085   -8.9570 O.3       1 <0>        -0.5697
     31 H6         -2.8565   -0.7867   -4.2846 H         1 <0>         0.0565
     32 H7         -1.7412   -1.2241   -5.6011 H         1 <0>         0.0610
     33 H8         -1.1509   -1.1458   -3.9237 H         1 <0>         0.0615
     34 H9         -3.4618    1.3118   -5.4966 H         1 <0>         0.0698
     35 H10        -2.1885    2.4513   -5.9949 H         1 <0>         0.0622
     36 H11        -2.9877    1.1142   -7.9230 H         1 <0>         0.0620
     37 H12        -2.5567   -0.3835   -7.0630 H         1 <0>         0.0741
     38 H13         1.1111    0.2502   -7.0521 H         1 <0>         0.0676
     39 H14        -0.1639   -0.8879   -6.5547 H         1 <0>         0.0733
     40 H15         0.6665   -0.7824   -4.2014 H         1 <0>         0.0673
     41 H16         1.9378    0.3603   -4.6967 H         1 <0>         0.0633
     42 H17         1.0284    2.0516   -3.1269 H         1 <0>         0.0625
     43 H18         1.4652    0.5533   -2.2707 H         1 <0>         0.0653
     44 H19        -3.6877    1.9832   -3.7425 H         1 <0>         0.0689
     45 H20        -3.3757    0.4071   -2.9875 H         1 <0>         0.0724
     46 H21        -2.9467    3.1385   -1.6803 H         1 <0>         0.0620
     47 H22        -4.2484    1.9775   -1.3007 H         1 <0>         0.0715
     48 H23         0.0021   -0.0041    0.0020 H         1 <0>         0.0799
     49 H24         1.0015    1.4851    0.0005 H         1 <0>         0.0794
     50 H25        -0.8081    0.8768    2.0289 H         1 <0>         0.0903
     51 H26        -0.3627    2.5495    1.5876 H         1 <0>         0.0882
     52 H27        -2.1283    2.6590    3.1552 H         1 <0>         0.4175
     53 H28        -5.3618    3.1987    1.9520 H         1 <0>         0.4084
     54 H29        -5.9536    3.8561    3.3804 H         1 <0>         0.4319
     55 H30        -1.9078   -0.6282   -0.0588 H         1 <0>         0.0594
     56 H31        -3.6206   -0.2483   -0.3589 H         1 <0>         0.0595
     57 H32        -2.5045   -0.4673   -1.7280 H         1 <0>         0.0826
     58 H33        -1.3255    0.4532   -9.6510 H         1 <0>         0.3777
@<TRIPOS>BOND
     1    1    2 1
     2    1   31 1
     3    1   32 1
     4    1   33 1
     5    2    8 1
     6    2   14 1
     7    2    3 1
     8    3    4 1
     9    3   34 1
    10    3   35 1
    11    4    5 1
    12    4   36 1
    13    4   37 1
    14    5    6 1
    15    5    7 1
    16    5   30 1
    17    7    8 1
    18    7   38 1
    19    7   39 1
    20    8    9 1
    21    8   10 1
    22   10   11 1
    23   10   40 1
    24   10   41 1
    25   11   12 1
    26   11   42 1
    27   11   43 1
    28   12   13 1
    29   12   19 1
    30   12   14 1
    31   14   15 1
    32   14   16 1
    33   16   17 1
    34   16   44 1
    35   16   45 1
    36   17   18 1
    37   17   46 1
    38   17   47 1
    39   18   23 1
    40   18   19 1
    41   18   29 1
    42   19   20 1
    43   19   21 1
    44   21   22 1
    45   21   48 1
    46   21   49 1
    47   22   23 1
    48   22   50 1
    49   22   51 1
    50   23   24 2
    51   24   25 1
    52   25   26 1
    53   25   52 1
    54   26   27 2
    55   26   28 1
    56   28   53 1
    57   28   54 1
    58   29   55 1
    59   29   56 1
    60   29   57 1
    61   30   58 1
