@<TRIPOS>MOLECULE
ZINC05393740
   45    48     0     0     0
SMALL
USER_CHARGES

@<TRIPOS>ATOM
      1 C1          0.2220    1.4439    0.0194 C.3       1 <0>         0.0916
      2 N1          0.0020   -0.0044    0.0022 N.pl3     1 <0>        -0.6376
      3 C2         -0.2157   -0.7271    1.2577 C.3       1 <0>         0.0917
      4 C3         -0.0000   -0.6961   -1.2112 C.ar      1 <0>         0.2214
      5 C4         -0.2141   -2.0685   -1.2298 C.ar      1 <0>        -0.1971
      6 C5         -0.2160   -2.7493   -2.4314 C.ar      1 <0>        -0.0494
      7 C6         -0.0046   -2.0664   -3.6151 C.ar      1 <0>        -0.1632
      8 C7          0.2089   -0.7002   -3.6002 C.ar      1 <0>        -0.0652
      9 C8          0.2063   -0.0123   -2.4027 C.ar      1 <0>        -0.1955
     10 C9         -0.0064   -2.8128   -4.9243 C.3       1 <0>         0.2641
     11 H1         -0.2600   -3.8597   -4.7578 H         1 <0>         0.1065
     12 C10         1.3713   -2.7035   -5.5965 C.3       1 <0>        -0.1466
     13 C11         1.5054   -1.4205   -6.3544 C.2       1 <0>         0.2690
     14 N2          0.5743   -0.6098   -6.6820 N.2       1 <0>        -0.5516
     15 C12        -0.8219   -0.8035   -6.3103 C.3       1 <0>         0.4945
     16 H2         -1.1194   -0.1016   -5.5312 H         1 <0>         0.1013
     17 N3         -0.9639   -2.2041   -5.8492 N.pl3     1 <0>        -0.5751
     18 N4         -2.0664   -2.7282   -6.5050 N.2       1 <0>        -0.2890
     19 C13        -2.4838   -1.9209   -7.4187 C.2       1 <0>         0.2545
     20 N5         -1.7299   -0.7303   -7.4597 N.pl3     1 <0>        -0.7575
     21 C14         2.8717   -1.0488   -6.7722 C.ar      1 <0>        -0.0795
     22 C15         3.9502   -1.8796   -6.4622 C.ar      1 <0>        -0.0939
     23 C16         5.2243   -1.5261   -6.8557 C.ar      1 <0>        -0.1269
     24 C17         5.4347   -0.3512   -7.5555 C.ar      1 <0>        -0.1029
     25 C18         4.3705    0.4769   -7.8656 C.ar      1 <0>        -0.1302
     26 C19         3.0904    0.1323   -7.4841 C.ar      1 <0>        -0.0693
     27 H3          1.2888    1.6484    0.1101 H         1 <0>         0.0497
     28 H4         -0.1540    1.8795   -0.9064 H         1 <0>         0.0684
     29 H5         -0.3052    1.8815    0.8671 H         1 <0>         0.0675
     30 H6         -1.2820   -0.7516    1.4826 H         1 <0>         0.0491
     31 H7          0.1585   -1.7462    1.1600 H         1 <0>         0.0698
     32 H8          0.3143   -0.2213    2.0648 H         1 <0>         0.0675
     33 H9         -0.3786   -2.6025   -0.3056 H         1 <0>         0.1246
     34 H10        -0.3824   -3.8163   -2.4465 H         1 <0>         0.1241
     35 H11         0.3736   -0.1699   -4.5265 H         1 <0>         0.1204
     36 H12         0.3686    1.0554   -2.3921 H         1 <0>         0.1218
     37 H13         2.1463   -2.7490   -4.8314 H         1 <0>         0.1032
     38 H14        -3.3163   -2.1290   -8.0745 H         1 <0>         0.2064
     39 H15        -1.7914   -0.0119   -8.1085 H         1 <0>         0.4277
     40 H16         3.7875   -2.7966   -5.9154 H         1 <0>         0.1284
     41 H17         6.0595   -2.1678   -6.6166 H         1 <0>         0.1262
     42 H18         6.4343   -0.0791   -7.8608 H         1 <0>         0.1236
     43 H19         4.5419    1.3927   -8.4118 H         1 <0>         0.1248
     44 H20         2.2599    0.7770   -7.7312 H         1 <0>         0.1344
     45 H21         1.5003   -3.5394   -6.2840 H         1 <0>         0.0987
@<TRIPOS>BOND
     1    1    2 1
     2    1   27 1
     3    1   28 1
     4    1   29 1
     5    2    3 1
     6    2    4 1
     7    3   30 1
     8    3   31 1
     9    3   32 1
    10    4    9 ar
    11    4    5 ar
    12    5    6 ar
    13    5   33 1
    14    6    7 ar
    15    6   34 1
    16    7    8 ar
    17    7   10 1
    18    8    9 ar
    19    8   35 1
    20    9   36 1
    21   10   11 1
    22   10   17 1
    23   10   12 1
    24   12   13 1
    25   12   37 1
    26   12   45 1
    27   13   14 2
    28   13   21 1
    29   14   15 1
    30   15   16 1
    31   15   20 1
    32   15   17 1
    33   17   18 1
    34   18   19 2
    35   19   20 1
    36   19   38 1
    37   20   39 1
    38   21   26 ar
    39   21   22 ar
    40   22   23 ar
    41   22   40 1
    42   23   24 ar
    43   23   41 1
    44   24   25 ar
    45   24   42 1
    46   25   26 ar
    47   25   43 1
    48   26   44 1
