@<TRIPOS>MOLECULE
ZINC36267077
   60    63     0     0     0
SMALL
USER_CHARGES

@<TRIPOS>ATOM
      1 C1         -1.3139   -1.3543    0.5540 C.3       1 <0>        -0.1456
      2 C2         -1.9158   -2.7406    0.3162 C.3       1 <0>        -0.0586
      3 C3         -1.6207   -3.6380    1.5198 C.3       1 <0>        -0.1452
      4 C4         -3.4068   -2.6167    0.1357 C.ar      1 <0>        -0.0730
      5 C5         -4.1807   -2.0782    1.1484 C.ar      1 <0>        -0.1015
      6 C6         -5.5461   -1.9618    0.9898 C.ar      1 <0>        -0.0921
      7 C7         -6.1467   -2.3885   -0.1963 C.ar      1 <0>         0.0834
      8 C8         -5.3597   -2.9306   -1.2144 C.ar      1 <0>        -0.1365
      9 C9         -3.9948   -3.0367   -1.0443 C.ar      1 <0>        -0.0985
     10 N1         -7.5017   -2.2763   -0.3602 N.2       1 <0>        -0.4539
     11 C10        -7.9902   -1.8116   -1.4862 C.2       1 <0>         0.4069
     12 N2         -9.3131   -1.6240   -1.8273 N.am      1 <0>        -0.5162
     13 C11        -9.6817   -1.1444   -3.0028 C.2       1 <0>         0.5328
     14 O1        -10.8471   -0.9817   -3.2956 O.2       1 <0>        -0.4696
     15 C12        -8.5527   -0.8091   -3.9644 C.3       1 <0>        -0.0751
     16 H1         -8.6091   -1.4172   -4.8672 H         1 <0>         0.1651
     17 S1         -7.0974   -1.2660   -2.9343 S.3       1 <0>        -0.1065
     18 C13        -8.5391    0.6824   -4.3051 C.3       1 <0>        -0.1199
     19 C14        -7.4873    0.9493   -5.3507 C.2       1 <0>         0.5255
     20 O2         -6.8147    0.0363   -5.7811 O.2       1 <0>        -0.5046
     21 N3         -7.2939    2.2024   -5.8077 N.am      1 <0>        -0.6629
     22 C15        -6.4337    2.4284   -6.8903 C.ar      1 <0>         0.1884
     23 C16        -6.2753    1.4539   -7.8669 C.ar      1 <0>        -0.0874
     24 C17        -5.4275    1.6772   -8.9334 C.ar      1 <0>        -0.1316
     25 C18        -4.7333    2.8747   -9.0293 C.ar      1 <0>         0.1190
     26 C19        -4.8910    3.8484   -8.0542 C.ar      1 <0>        -0.0732
     27 C20        -5.7436    3.6288   -6.9901 C.ar      1 <0>        -0.0430
     28 N4         -5.9168    4.6706   -5.9531 N.pl3     1 <0>         0.0434
     29 O3         -5.4019    5.7554   -6.0941 O.2       1 <0>        -0.1347
     30 O4         -6.5731    4.4369   -4.9650 O.3       1 <0>        -0.1762
     31 O5         -3.8978    3.0936  -10.0794 O.3       1 <0>        -0.3057
     32 C21        -3.7831    2.0476  -11.0463 C.3       1 <0>         0.0222
     33 C22       -10.3489   -1.9695   -0.8506 C.3       1 <0>         0.0375
     34 C23        -9.9160   -2.1441    0.6064 C.3       1 <0>        -0.1804
     35 C24       -10.2969   -3.3671   -0.2302 C.3       1 <0>        -0.1712
     36 H2         -0.2355   -1.4439    0.6846 H         1 <0>         0.0596
     37 H3         -1.5242   -0.7149   -0.3034 H         1 <0>         0.0562
     38 H4         -1.7533   -0.9162    1.4502 H         1 <0>         0.0576
     39 H5         -1.4764   -3.1787   -0.5800 H         1 <0>         0.0785
     40 H6         -2.0600   -3.2000    2.4160 H         1 <0>         0.0576
     41 H7         -2.0495   -4.6257    1.3504 H         1 <0>         0.0564
     42 H8         -0.5422   -3.7277    1.6504 H         1 <0>         0.0595
     43 H9         -3.7148   -1.7485    2.0652 H         1 <0>         0.1290
     44 H10        -6.1490   -1.5419    1.7813 H         1 <0>         0.1303
     45 H11        -5.8180   -3.2629   -2.1341 H         1 <0>         0.1299
     46 H12        -3.3844   -3.4520   -1.8325 H         1 <0>         0.1260
     47 H13        -9.5160    0.9763   -4.6891 H         1 <0>         0.1328
     48 H14        -8.3134    1.2581   -3.4074 H         1 <0>         0.1217
     49 H15        -7.7503    2.9478   -5.3870 H         1 <0>         0.4274
     50 H16        -6.8151    0.5214   -7.7920 H         1 <0>         0.1641
     51 H17        -5.3043    0.9194   -9.6930 H         1 <0>         0.1532
     52 H18        -4.3504    4.7803   -8.1295 H         1 <0>         0.1671
     53 H19        -3.4139    1.1438  -10.5616 H         1 <0>         0.0615
     54 H20        -4.7608    1.8505  -11.4860 H         1 <0>         0.0612
     55 H21        -3.0873    2.3506  -11.8286 H         1 <0>         0.1096
     56 H22       -11.3323   -1.5372   -1.0354 H         1 <0>         0.1474
     57 H23        -8.8604   -2.0019    0.8383 H         1 <0>         0.1466
     58 H24       -10.6145   -1.8265    1.3806 H         1 <0>         0.1018
     59 H25       -11.2461   -3.8541   -0.0065 H         1 <0>         0.1055
     60 H26        -9.4920   -4.0295   -0.5488 H         1 <0>         0.0986
@<TRIPOS>BOND
     1    1    2 1
     2    1   36 1
     3    1   37 1
     4    1   38 1
     5    2    3 1
     6    2    4 1
     7    2   39 1
     8    3   40 1
     9    3   41 1
    10    3   42 1
    11    4    9 ar
    12    4    5 ar
    13    5    6 ar
    14    5   43 1
    15    6    7 ar
    16    6   44 1
    17    7    8 ar
    18    7   10 1
    19    8    9 ar
    20    8   45 1
    21    9   46 1
    22   10   11 2
    23   11   17 1
    24   11   12 1
    25   12   13 am
    26   12   33 1
    27   13   14 2
    28   13   15 1
    29   15   16 1
    30   15   17 1
    31   15   18 1
    32   18   19 1
    33   18   47 1
    34   18   48 1
    35   19   20 2
    36   19   21 am
    37   21   22 1
    38   21   49 1
    39   22   27 ar
    40   22   23 ar
    41   23   24 ar
    42   23   50 1
    43   24   25 ar
    44   24   51 1
    45   25   26 ar
    46   25   31 1
    47   26   27 ar
    48   26   52 1
    49   27   28 1
    50   28   29 2
    51   28   30 1
    52   31   32 1
    53   32   53 1
    54   32   54 1
    55   32   55 1
    56   33   35 1
    57   33   34 1
    58   33   56 1
    59   34   35 1
    60   34   57 1
    61   34   58 1
    62   35   59 1
    63   35   60 1
