@<TRIPOS>MOLECULE
ZINC15019018
   36    38     0     0     0
SMALL
USER_CHARGES
N-(2-hydroxyphenyl)-2-(3-oxo-1,4-benzoxazin-4-yl)acetamide
@<TRIPOS>ATOM
      1 C1          4.7802    3.9219   -5.9114 C.ar      1 <0>        -0.1084
      2 C2          5.4117    2.8669   -6.5440 C.ar      1 <0>        -0.1157
      3 C3          5.8910    1.8005   -5.8062 C.ar      1 <0>        -0.1266
      4 C4          5.7394    1.7867   -4.4291 C.ar      1 <0>         0.0791
      5 C5          5.1033    2.8491   -3.7912 C.ar      1 <0>         0.1200
      6 C6          4.6199    3.9130   -4.5388 C.ar      1 <0>        -0.1068
      7 N1          4.9471    2.8406   -2.3987 N.am      1 <0>        -0.6659
      8 C7          3.8414    3.3728   -1.8413 C.2       1 <0>         0.4973
      9 O1          3.0198    3.9308   -2.5376 O.2       1 <0>        -0.5011
     10 C8          3.6259    3.2746   -0.3530 C.3       1 <0>         0.0911
     11 N2          2.3617    3.9245    0.0013 N.am      1 <0>        -0.5350
     12 C9          1.1658    3.1926    0.0200 C.ar      1 <0>         0.1009
     13 C10         1.1833    1.8077    0.0221 C.ar      1 <0>        -0.1275
     14 C11        -0.0076    1.1050    0.0392 C.ar      1 <0>        -0.1083
     15 C12        -1.2139    1.7809    0.0483 C.ar      1 <0>        -0.1082
     16 C13        -1.2379    3.1639    0.0525 C.ar      1 <0>        -0.1058
     17 C14        -0.0502    3.8740    0.0357 C.ar      1 <0>         0.0837
     18 O2         -0.0550    5.2338    0.0356 O.3       1 <0>        -0.2993
     19 C15         1.0257    5.8806    0.7128 C.3       1 <0>         0.0556
     20 C16         2.3300    5.2382    0.3144 C.2       1 <0>         0.4948
     21 O3          3.3470    5.8981    0.2757 O.2       1 <0>        -0.5031
     22 O4          6.2099    0.7383   -3.7021 O.3       1 <0>        -0.4948
     23 H1          4.4070    4.7526   -6.4919 H         1 <0>         0.1301
     24 H2          5.5305    2.8758   -7.6174 H         1 <0>         0.1301
     25 H3          6.3835    0.9779   -6.3035 H         1 <0>         0.1341
     26 H4          4.1219    4.7361   -4.0478 H         1 <0>         0.1422
     27 H5          5.6348    2.4517   -1.8359 H         1 <0>         0.4163
     28 H6          4.4467    3.7691    0.1664 H         1 <0>         0.1281
     29 H7          3.5898    2.2254   -0.0596 H         1 <0>         0.1228
     30 H8          2.1245    1.2780    0.0100 H         1 <0>         0.1299
     31 H9          0.0044    0.0251    0.0409 H         1 <0>         0.1334
     32 H10        -2.1409    1.2268    0.0566 H         1 <0>         0.1362
     33 H11        -2.1818    3.6885    0.0641 H         1 <0>         0.1414
     34 H12         1.0436    6.9363    0.4421 H         1 <0>         0.1482
     35 H13         0.8881    5.7849    1.7898 H         1 <0>         0.1026
     36 H14         5.5693    0.0241   -3.5818 H         1 <0>         0.3889
@<TRIPOS>BOND
     1    1    6 ar
     2    1    2 ar
     3    1   23 1
     4    2    3 ar
     5    2   24 1
     6    3    4 ar
     7    3   25 1
     8    4    5 ar
     9    4   22 1
    10    5    6 ar
    11    5    7 1
    12    6   26 1
    13    7    8 am
    14    7   27 1
    15    8    9 2
    16    8   10 1
    17   10   11 1
    18   10   28 1
    19   10   29 1
    20   11   20 am
    21   11   12 1
    22   12   17 ar
    23   12   13 ar
    24   13   14 ar
    25   13   30 1
    26   14   15 ar
    27   14   31 1
    28   15   16 ar
    29   15   32 1
    30   16   17 ar
    31   16   33 1
    32   17   18 1
    33   18   19 1
    34   19   20 1
    35   19   34 1
    36   19   35 1
    37   20   21 2
    38   22   36 1
