@<TRIPOS>MOLECULE
ZINC08996207
   57    60     0     0     0
SMALL
USER_CHARGES
(4E,5S)-4-(2,3-dihydro-1,4-benzodioxin-6-yl-hydroxy-methylene)-1-(2-dimethylaminoethyl)-5-(4-nitrophenyl)pyrrolidine-2,3-dione
@<TRIPOS>ATOM
      1 C1         10.8535    0.1362   -3.5103 C.3       1 <0>        -0.0416
      2 C2         11.1220    1.6201   -1.6160 C.3       1 <0>        -0.0491
      3 C3          9.0123    0.4883   -1.9777 C.3       1 <0>        -0.0296
      4 C4          8.6420    0.5147   -0.4934 C.3       1 <0>         0.1056
      5 N1          7.1861    0.6012   -0.3549 N.am      1 <0>        -0.6018
      6 C5          6.2694   -0.5395   -0.2707 C.3       1 <0>         0.2432
      7 H1          6.3398   -1.1425   -1.1760 H         1 <0>         0.1106
      8 C6          4.8773    0.0333   -0.1375 C.2       1 <0>        -0.3536
      9 C7          3.6958   -0.6742   -0.0272 C.2       1 <0>         0.3346
     10 C8          2.4378    0.0342    0.2544 C.ar      1 <0>        -0.1554
     11 C9          2.3652    0.9413    1.3184 C.ar      1 <0>        -0.0300
     12 C10         1.1861    1.6013    1.5792 C.ar      1 <0>        -0.1170
     13 C11         0.0639    1.3717    0.7899 C.ar      1 <0>         0.0982
     14 C12         0.1295    0.4723   -0.2727 C.ar      1 <0>         0.0467
     15 C13         1.3092   -0.1956   -0.5406 C.ar      1 <0>        -0.0767
     16 O1         -0.9583    0.2430   -1.0586 O.3       1 <0>        -0.3035
     17 C14        -2.2277    0.6457   -0.5331 C.3       1 <0>         0.0194
     18 C15        -2.0828    2.0623    0.0391 C.3       1 <0>         0.0167
     19 O2         -1.0920    2.0293    1.0721 O.3       1 <0>        -0.2982
     20 O3          3.6958   -2.0160   -0.1779 O.3       1 <0>        -0.4321
     21 C16         5.0258    1.4280   -0.1544 C.2       1 <0>         0.3876
     22 O4          4.1247    2.2433   -0.0735 O.2       1 <0>        -0.3890
     23 C17         6.4749    1.7390   -0.2848 C.2       1 <0>         0.4876
     24 O5          6.9455    2.8573   -0.3267 O.2       1 <0>        -0.4713
     25 C18         6.5997   -1.3790    0.9364 C.ar      1 <0>        -0.0602
     26 C19         6.9831   -0.7711    2.1172 C.ar      1 <0>        -0.1032
     27 C20         7.2809   -1.5411    3.2260 C.ar      1 <0>        -0.0521
     28 C21         7.2060   -2.9193    3.1507 C.ar      1 <0>        -0.0336
     29 C22         6.8282   -3.5275    1.9683 C.ar      1 <0>        -0.0510
     30 C23         6.5248   -2.7573    0.8611 C.ar      1 <0>        -0.0928
     31 N2          7.5299   -3.7440    4.3365 N.pl3     1 <0>         0.0196
     32 O6          7.4635   -4.9583    4.2703 O.2       1 <0>        -0.1475
     33 O7          7.8629   -3.2081    5.3784 O.3       1 <0>        -0.1496
     34 H2         10.4891    0.9428   -4.1465 H         1 <0>         0.1244
     35 H3         11.9393    0.0768   -3.5849 H         1 <0>         0.1260
     36 H4         10.4149   -0.8079   -3.8335 H         1 <0>         0.1225
     37 H5         10.8786    1.7548   -0.5620 H         1 <0>         0.1222
     38 H6         12.2021    1.5292   -1.7307 H         1 <0>         0.1269
     39 H7         10.7674    2.4804   -2.1836 H         1 <0>         0.1269
     40 H8          8.5501   -0.3774   -2.4522 H         1 <0>         0.1350
     41 H9          8.6552    1.3995   -2.4576 H         1 <0>         0.1380
     42 H10         9.1042    1.3803   -0.0190 H         1 <0>         0.1115
     43 H11         8.9991   -0.3966   -0.0136 H         1 <0>         0.1065
     44 H12         3.2339    1.1231    1.9338 H         1 <0>         0.1345
     45 H13         1.1319    2.3010    2.4001 H         1 <0>         0.1475
     46 H14         1.3601   -0.8944   -1.3624 H         1 <0>         0.1445
     47 H15        -2.9722    0.6452   -1.3293 H         1 <0>         0.1308
     48 H16        -2.5333   -0.0409    0.2564 H         1 <0>         0.0839
     49 H17        -1.7702    2.7469   -0.7494 H         1 <0>         0.0852
     50 H18        -3.0359    2.3903    0.4540 H         1 <0>         0.1318
     51 H19         2.7648   -2.3638   -0.0674 H         1 <0>         0.4243
     52 H20         7.0458    0.3055    2.1747 H         1 <0>         0.1408
     53 H21         7.5758   -1.0659    4.1500 H         1 <0>         0.1574
     54 H22         6.7696   -4.6043    1.9095 H         1 <0>         0.1591
     55 H23         6.2296   -3.2324   -0.0627 H         1 <0>         0.1527
     56 N3         10.4812    0.3795   -2.1007 N.4       1 <0>        -0.3944
     57 H24        10.8063   -0.4091   -1.5291 H         1 <0>         0.4315
@<TRIPOS>BOND
     1    1   34 1
     2    1   35 1
     3    1   36 1
     4    1   56 1
     5    2   37 1
     6    2   38 1
     7    2   39 1
     8    2   56 1
     9    3    4 1
    10    3   40 1
    11    3   41 1
    12    3   56 1
    13    4    5 1
    14    4   42 1
    15    4   43 1
    16    5   23 am
    17    5    6 1
    18    6    7 1
    19    6    8 1
    20    6   25 1
    21    8    9 2
    22    8   21 1
    23    9   10 1
    24    9   20 1
    25   10   15 ar
    26   10   11 ar
    27   11   12 ar
    28   11   44 1
    29   12   13 ar
    30   12   45 1
    31   13   19 1
    32   13   14 ar
    33   14   15 ar
    34   14   16 1
    35   15   46 1
    36   16   17 1
    37   17   18 1
    38   17   47 1
    39   17   48 1
    40   18   19 1
    41   18   49 1
    42   18   50 1
    43   20   51 1
    44   21   22 2
    45   21   23 1
    46   23   24 2
    47   25   30 ar
    48   25   26 ar
    49   26   27 ar
    50   26   52 1
    51   27   28 ar
    52   27   53 1
    53   28   29 ar
    54   28   31 1
    55   29   30 ar
    56   29   54 1
    57   30   55 1
    58   31   32 2
    59   31   33 1
    60   56   57 1
