@<TRIPOS>MOLECULE
ZINC67332083
   57    59     0     0     0
SMALL
USER_CHARGES

@<TRIPOS>ATOM
      1 C1         -0.0157    1.3029    0.0092 C.2       1 <0>         0.2021
      2 N1          1.2385    1.7527   -0.0004 N.2       1 <0>        -0.5378
      3 C2          2.0716    0.7439   -0.0137 C.2       1 <0>         0.2601
      4 N2          1.3519   -0.3915   -0.0130 N.pl3     1 <0>        -0.3797
      5 N3          0.0021   -0.0041    0.0020 N.2       1 <0>        -0.2966
      6 C3          1.8723   -1.7609   -0.0253 C.3       1 <0>         0.1161
      7 C4          1.3001   -2.5262    1.1400 C.2       1 <0>         0.5069
      8 O1          0.5331   -1.9814    1.9054 O.2       1 <0>        -0.5016
      9 N4          1.6407   -3.8161    1.3316 N.am      1 <0>        -0.7230
     10 C5          1.0844   -4.5601    2.4644 C.3       1 <0>         0.1029
     11 C6          1.6197   -5.9688    2.4517 C.2       1 <0>         0.5184
     12 O2          2.3900   -6.3169    1.5821 O.2       1 <0>        -0.5062
     13 N5          1.2424   -6.8416    3.4068 N.am      1 <0>        -0.7519
     14 C7          1.7628   -8.2111    3.3945 C.3       1 <0>         0.0987
     15 C8          1.1819   -8.9881    4.5775 C.3       1 <0>         0.0117
     16 H1          1.5460   -8.5648    5.5137 H         1 <0>         0.1485
     17 C9          1.5878  -10.4737    4.4801 C.3       1 <0>        -0.1323
     18 C10         0.3142  -11.2164    4.9630 C.3       1 <0>        -0.1385
     19 C11        -0.8090  -10.3118    4.3974 C.3       1 <0>        -0.0156
     20 N6         -0.2910   -8.9308    4.5406 N.4       1 <0>        -0.3964
     21 C12        -0.7941   -8.3375    5.7867 C.3       1 <0>        -0.0104
     22 C13        -2.3115   -8.1654    5.6934 C.3       1 <0>        -0.1141
     23 C14        -2.6431   -7.1493    4.5985 C.3       1 <0>        -0.1296
     24 C15        -4.1606   -6.9772    4.5052 C.3       1 <0>        -0.1196
     25 C16        -4.7005   -6.4764    5.8463 C.3       1 <0>        -0.1269
     26 C17        -4.3688   -7.4924    6.9411 C.3       1 <0>        -0.1222
     27 C18        -2.8514   -7.6645    7.0344 C.3       1 <0>        -0.1111
     28 H2         -0.9029    1.9184    0.0250 H         1 <0>         0.2195
     29 H3          3.1494    0.8117   -0.0240 H         1 <0>         0.2216
     30 H4          1.5865   -2.2498   -0.9566 H         1 <0>         0.1235
     31 H5          2.9592   -1.7373    0.0540 H         1 <0>         0.1358
     32 H6          2.2541   -4.2518    0.7194 H         1 <0>         0.4156
     33 H7          1.3702   -4.0712    3.3957 H         1 <0>         0.1060
     34 H8         -0.0024   -4.5837    2.3851 H         1 <0>         0.1044
     35 H9          0.6263   -6.5632    4.1023 H         1 <0>         0.3989
     36 H10         1.4770   -8.7000    2.4631 H         1 <0>         0.0991
     37 H11         2.8497   -8.1875    3.4738 H         1 <0>         0.1192
     38 H12         1.8232  -10.7421    3.4502 H         1 <0>         0.1066
     39 H13         2.4307  -10.6869    5.1373 H         1 <0>         0.1194
     40 H14         0.2608  -12.2180    4.5363 H         1 <0>         0.1217
     41 H15         0.2737  -11.2547    6.0516 H         1 <0>         0.0999
     42 H16        -0.9905  -10.5434    3.3479 H         1 <0>         0.1346
     43 H17        -1.7235  -10.4346    4.9777 H         1 <0>         0.1389
     44 H18        -0.5535   -8.9925    6.6240 H         1 <0>         0.1360
     45 H19        -0.3269   -7.3648    5.9405 H         1 <0>         0.1273
     46 H20        -2.7716   -9.1234    5.4514 H         1 <0>         0.0962
     47 H21        -2.1830   -6.1913    4.8405 H         1 <0>         0.0791
     48 H22        -2.2585   -7.5062    3.6431 H         1 <0>         0.0531
     49 H23        -4.3968   -6.2534    3.7252 H         1 <0>         0.0740
     50 H24        -4.6207   -7.9353    4.2632 H         1 <0>         0.0674
     51 H25        -4.2404   -5.5183    6.0882 H         1 <0>         0.0673
     52 H26        -5.7815   -6.3537    5.7798 H         1 <0>         0.0723
     53 H27        -4.7535   -7.1355    7.8965 H         1 <0>         0.0751
     54 H28        -4.8290   -8.4504    6.6991 H         1 <0>         0.0667
     55 H29        -2.6152   -8.3883    7.8144 H         1 <0>         0.0744
     56 H30        -2.3913   -6.7064    7.2764 H         1 <0>         0.0750
     57 H31        -0.5895   -8.3721    3.7552 H         1 <0>         0.4197
@<TRIPOS>BOND
     1    1    5 2
     2    1    2 1
     3    1   28 1
     4    2    3 2
     5    3    4 1
     6    3   29 1
     7    4    5 1
     8    4    6 1
     9    6    7 1
    10    6   30 1
    11    6   31 1
    12    7    8 2
    13    7    9 am
    14    9   10 1
    15    9   32 1
    16   10   11 1
    17   10   33 1
    18   10   34 1
    19   11   12 2
    20   11   13 am
    21   13   14 1
    22   13   35 1
    23   14   15 1
    24   14   36 1
    25   14   37 1
    26   15   16 1
    27   15   20 1
    28   15   17 1
    29   17   18 1
    30   17   38 1
    31   17   39 1
    32   18   19 1
    33   18   40 1
    34   18   41 1
    35   19   20 1
    36   19   42 1
    37   19   43 1
    38   20   21 1
    39   20   57 1
    40   21   22 1
    41   21   44 1
    42   21   45 1
    43   22   27 1
    44   22   23 1
    45   22   46 1
    46   23   24 1
    47   23   47 1
    48   23   48 1
    49   24   25 1
    50   24   49 1
    51   24   50 1
    52   25   26 1
    53   25   51 1
    54   25   52 1
    55   26   27 1
    56   26   53 1
    57   26   54 1
    58   27   55 1
    59   27   56 1
