@<TRIPOS>MOLECULE
ZINC03296174
   49    52     0     0     0
SMALL
USER_CHARGES
methyl 4-(8-benzyl-7,7-dioxo-7$l^{6}-thia-8,10-diazabicyclo[4.4.0]deca-2,4,11-trien-9-yl)benzoate
@<TRIPOS>ATOM
      1 C1          1.3246    6.6298    8.1630 C.3       1 <0>         0.0362
      2 O1          1.4477    6.6304    6.7162 O.3       1 <0>        -0.3534
      3 C2          1.9386    5.5142    6.1437 C.2       1 <0>         0.5077
      4 O2          2.2552    4.5663    6.8342 O.2       1 <0>        -0.5037
      5 C3          2.0919    5.4429    4.6761 C.ar      1 <0>        -0.1104
      6 C4          2.6004    4.2874    4.0795 C.ar      1 <0>        -0.0633
      7 C5          2.7405    4.2274    2.7085 C.ar      1 <0>        -0.0956
      8 C6          2.3784    5.3088    1.9249 C.ar      1 <0>        -0.1221
      9 C7          1.8787    6.4588    2.5100 C.ar      1 <0>        -0.0665
     10 C8          1.7284    6.5304    3.8794 C.ar      1 <0>        -0.0579
     11 C9          2.5347    5.2360    0.4278 C.3       1 <0>         0.4193
     12 H1          3.5211    5.6019    0.1426 H         1 <0>         0.1357
     13 N1          2.3785    3.8526   -0.0146 N.pl3     1 <0>        -0.7478
     14 C10         1.1638    3.1727    0.0127 C.ar      1 <0>         0.2943
     15 C11         1.1739    1.7786    0.0004 C.ar      1 <0>        -0.1948
     16 C12        -0.0126    1.0758    0.0080 C.ar      1 <0>        -0.0290
     17 C13        -1.2213    1.7481    0.0173 C.ar      1 <0>        -0.1757
     18 C14        -1.2397    3.1310    0.0353 C.ar      1 <0>         0.0118
     19 C15        -0.0549    3.8372    0.0356 C.ar      1 <0>        -0.7109
     20 S1         -0.0834    5.6040    0.0741 S.o2      1 <0>         2.6791
     21 O3         -0.3842    5.9855    1.4095 O.2       1 <0>        -0.9415
     22 O4         -0.8540    6.0326   -1.0402 O.2       1 <0>        -0.9505
     23 N2          1.4942    6.0604   -0.2197 N.pl3     1 <0>        -0.9957
     24 C16         1.8268    7.2076   -1.0679 C.3       1 <0>         0.1746
     25 C17         2.0951    6.7326   -2.4727 C.ar      1 <0>        -0.1182
     26 C18         3.3778    6.3823   -2.8507 C.ar      1 <0>        -0.1023
     27 C19         3.6229    5.9415   -4.1378 C.ar      1 <0>        -0.1258
     28 C20         2.5875    5.8620   -5.0502 C.ar      1 <0>        -0.1127
     29 C21         1.3057    6.2174   -4.6736 C.ar      1 <0>        -0.1215
     30 C22         1.0596    6.6527   -3.3849 C.ar      1 <0>        -0.0956
     31 H2          0.6570    5.8250    8.4705 H         1 <0>         0.0649
     32 H3          2.3067    6.4785    8.6111 H         1 <0>         0.0648
     33 H4          0.9179    7.5856    8.4934 H         1 <0>         0.1048
     34 H5          2.8837    3.4428    4.6900 H         1 <0>         0.1395
     35 H6          3.1340    3.3345    2.2457 H         1 <0>         0.1344
     36 H7          1.6018    7.3008    1.8929 H         1 <0>         0.1339
     37 H8          1.3341    7.4269    4.3345 H         1 <0>         0.1417
     38 H9          3.1611    3.3836   -0.3438 H         1 <0>         0.4140
     39 H10         2.1140    1.2473   -0.0154 H         1 <0>         0.1314
     40 H11         0.0021   -0.0041    0.0020 H         1 <0>         0.1318
     41 H12        -2.1485    1.1944    0.0148 H         1 <0>         0.1326
     42 H13        -2.1822    3.6582    0.0443 H         1 <0>         0.1301
     43 H14         0.9923    7.9087   -1.0746 H         1 <0>         0.0943
     44 H15         2.7149    7.7036   -0.6763 H         1 <0>         0.0984
     45 H16         4.1876    6.4489   -2.1393 H         1 <0>         0.1191
     46 H17         4.6243    5.6636   -4.4319 H         1 <0>         0.1210
     47 H18         2.7798    5.5219   -6.0570 H         1 <0>         0.1209
     48 H19         0.4967    6.1553   -5.3864 H         1 <0>         0.1229
     49 H20         0.0582    6.9307   -3.0908 H         1 <0>         0.1359
@<TRIPOS>BOND
     1    1    2 1
     2    1   31 1
     3    1   32 1
     4    1   33 1
     5    2    3 1
     6    3    4 2
     7    3    5 1
     8    5   10 ar
     9    5    6 ar
    10    6    7 ar
    11    6   34 1
    12    7    8 ar
    13    7   35 1
    14    8    9 ar
    15    8   11 1
    16    9   10 ar
    17    9   36 1
    18   10   37 1
    19   11   12 1
    20   11   23 1
    21   11   13 1
    22   13   14 1
    23   13   38 1
    24   14   19 ar
    25   14   15 ar
    26   15   16 ar
    27   15   39 1
    28   16   17 ar
    29   16   40 1
    30   17   18 ar
    31   17   41 1
    32   18   19 ar
    33   18   42 1
    34   19   20 1
    35   20   21 2
    36   20   22 2
    37   20   23 1
    38   23   24 1
    39   24   25 1
    40   24   43 1
    41   24   44 1
    42   25   30 ar
    43   25   26 ar
    44   26   27 ar
    45   26   45 1
    46   27   28 ar
    47   27   46 1
    48   28   29 ar
    49   28   47 1
    50   29   30 ar
    51   29   48 1
    52   30   49 1
