@<TRIPOS>MOLECULE
ZINC39696683
   61    64     0     0     0
SMALL
USER_CHARGES

@<TRIPOS>ATOM
      1 C1          6.6267    0.0106   -0.3836 C.3       1 <0>         0.0222
      2 N1          6.3864   -1.4210   -0.1579 N.3       1 <0>        -0.5411
      3 C2          7.5783   -2.0731    0.4037 C.3       1 <0>         0.0128
      4 C3          7.3049   -3.5706    0.5668 C.3       1 <0>         0.0661
      5 O1          6.1498   -3.7523    1.3902 O.3       1 <0>        -0.3869
      6 C4          4.9704   -3.1305    0.8728 C.3       1 <0>         0.0822
      7 H1          4.7258   -3.5641   -0.0969 H         1 <0>         0.0783
      8 C5          5.2201   -1.6285    0.7128 C.3       1 <0>         0.0238
      9 C6          3.8074   -3.3556    1.8411 C.3       1 <0>         0.1275
     10 N2          3.5727   -4.7933    1.9966 N.am      1 <0>        -0.7191
     11 C7          2.5899   -5.2318    2.8079 C.2       1 <0>         0.5203
     12 O2          1.8996   -4.4362    3.4091 O.2       1 <0>        -0.5225
     13 C8          2.3485   -6.7107    2.9679 C.3       1 <0>        -0.1135
     14 H2          2.6424   -7.2426    2.0630 H         1 <0>         0.1129
     15 C9          0.8622   -6.9813    3.2923 C.3       1 <0>         0.0999
     16 N3          0.8885   -8.1015    4.2620 N.am      1 <0>        -0.6184
     17 C10         2.0467   -7.8035    5.1383 C.3       1 <0>         0.1112
     18 C11         3.1225   -7.2513    4.1819 C.3       1 <0>        -0.0718
     19 C12         4.0688   -8.3677    3.7510 C.3       1 <0>        -0.1347
     20 C13         4.8678   -8.8500    4.9650 C.3       1 <0>        -0.0110
     21 N4          5.6274   -7.7282    5.5300 N.4       1 <0>        -0.5045
     22 C14         4.7062   -6.6989    6.0264 C.3       1 <0>        -0.0071
     23 C15         3.9001   -6.1258    4.8574 C.3       1 <0>        -0.1475
     24 C16         0.0491   -9.1537    4.3317 C.2       1 <0>         0.5912
     25 O3          0.1428   -9.9463    5.2486 O.2       1 <0>        -0.4991
     26 C17        -0.9850   -9.3437    3.2936 C.ar      1 <0>        -0.1791
     27 C18        -1.6200   -8.2404    2.7106 C.ar      1 <0>        -0.0394
     28 C19        -2.5810   -8.4724    1.7427 C.ar      1 <0>        -0.1724
     29 C20        -2.8818   -9.7744    1.3844 C.ar      1 <0>         0.1504
     30 N5         -2.2681  -10.7960    1.9500 N.ar      1 <0>        -0.4753
     31 C21        -1.3419  -10.6273    2.8727 C.ar      1 <0>         0.2244
     32 Cl1        -0.5643  -12.0112    3.5756 Cl        1 <0>         0.0023
     33 H3          6.8112    0.5030    0.5711 H         1 <0>         0.0307
     34 H4          7.4949    0.1356   -1.0307 H         1 <0>         0.0753
     35 H5          5.7523    0.4553   -0.8588 H         1 <0>         0.0751
     36 H6          8.4234   -1.9286   -0.2693 H         1 <0>         0.0913
     37 H7          7.8078   -1.6370    1.3760 H         1 <0>         0.0448
     38 H8          7.1282   -4.0171   -0.4117 H         1 <0>         0.0638
     39 H9          8.1650   -4.0487    1.0358 H         1 <0>         0.1012
     40 H10         5.4119   -1.1853    1.6899 H         1 <0>         0.0481
     41 H11         4.3438   -1.1595    0.2653 H         1 <0>         0.0924
     42 H12         4.0519   -2.9204    2.8101 H         1 <0>         0.0795
     43 H13         2.9088   -2.8815    1.4462 H         1 <0>         0.0909
     44 H14         4.1248   -5.4296    1.5158 H         1 <0>         0.4053
     45 H15         0.4049   -6.1000    3.7420 H         1 <0>         0.1052
     46 H16         0.3233   -7.2719    2.3905 H         1 <0>         0.0974
     47 H17         1.7776   -7.0544    5.8829 H         1 <0>         0.0879
     48 H18         2.4009   -8.7132    5.6232 H         1 <0>         0.0916
     49 H19         3.4911   -9.1970    3.3427 H         1 <0>         0.1180
     50 H20         4.7534   -7.9913    2.9909 H         1 <0>         0.0980
     51 H21         4.1836   -9.2412    5.7180 H         1 <0>         0.1342
     52 H22         5.5567   -9.6366    4.6571 H         1 <0>         0.1400
     53 H23         6.1997   -8.0609    6.2915 H         1 <0>         0.4341
     54 H24         4.0260   -7.1409    6.7544 H         1 <0>         0.1331
     55 H25         5.2760   -5.8999    6.5007 H         1 <0>         0.1390
     56 H26         4.5784   -5.6689    4.1369 H         1 <0>         0.1006
     57 H27         3.2035   -5.3745    5.2293 H         1 <0>         0.1257
     58 H28        -1.3663   -7.2339    3.0091 H         1 <0>         0.1529
     59 H29        -3.0915   -7.6453    1.2718 H         1 <0>         0.1559
     60 H30        -3.6320   -9.9575    0.6294 H         1 <0>         0.1775
     61 H31         6.2199   -7.3314    4.8161 H         1 <0>         0.4285
@<TRIPOS>BOND
     1    1    2 1
     2    1   33 1
     3    1   34 1
     4    1   35 1
     5    2    8 1
     6    2    3 1
     7    3    4 1
     8    3   36 1
     9    3   37 1
    10    4    5 1
    11    4   38 1
    12    4   39 1
    13    5    6 1
    14    6    7 1
    15    6    8 1
    16    6    9 1
    17    8   40 1
    18    8   41 1
    19    9   10 1
    20    9   42 1
    21    9   43 1
    22   10   11 am
    23   10   44 1
    24   11   12 2
    25   11   13 1
    26   13   14 1
    27   13   18 1
    28   13   15 1
    29   15   16 1
    30   15   45 1
    31   15   46 1
    32   16   17 1
    33   16   24 am
    34   17   18 1
    35   17   47 1
    36   17   48 1
    37   18   23 1
    38   18   19 1
    39   19   20 1
    40   19   49 1
    41   19   50 1
    42   20   21 1
    43   20   51 1
    44   20   52 1
    45   21   22 1
    46   21   53 1
    47   21   61 1
    48   22   23 1
    49   22   54 1
    50   22   55 1
    51   23   56 1
    52   23   57 1
    53   24   25 2
    54   24   26 1
    55   26   31 ar
    56   26   27 ar
    57   27   28 ar
    58   27   58 1
    59   28   29 ar
    60   28   59 1
    61   29   30 ar
    62   29   60 1
    63   30   31 ar
    64   31   32 1
