@<TRIPOS>MOLECULE
ZINC46097924
   33    35     0     0     0
SMALL
USER_CHARGES

@<TRIPOS>ATOM
      1 C1          0.0465    1.3198    0.7539 C.ar      1 <0>        -0.1333
      2 C2          1.2284    2.0362    0.6665 C.ar      1 <0>        -0.0704
      3 C3          2.4176    1.3982    0.3779 C.ar      1 <0>        -0.1306
      4 C4          2.4396    0.0230    0.1712 C.ar      1 <0>         0.1680
      5 C5          1.2419   -0.6979    0.2610 C.ar      1 <0>        -0.1469
      6 C6          0.0488   -0.0459    0.5524 C.ar      1 <0>        -0.0701
      7 C7          1.5858   -2.1140   -0.0045 C.2       1 <0>         0.0052
      8 N1          0.7717   -3.1447   -0.0233 N.2       1 <0>        -0.0993
      9 N2         -0.5007   -2.9636    0.0881 N.pl3     1 <0>        -0.4875
     10 C8         -1.3523   -4.0585    0.1953 C.ar      1 <0>         0.4301
     11 C9         -2.7240   -3.8563    0.3092 C.ar      1 <0>        -0.2248
     12 C10        -3.5594   -4.9541    0.4146 C.ar      1 <0>         0.0626
     13 C11        -2.9926   -6.2214    0.4024 C.ar      1 <0>        -0.7674
     14 C12        -1.6221   -6.3484    0.2863 C.ar      1 <0>         0.2486
     15 N3         -0.8505   -5.2838    0.1824 N.ar      1 <0>        -0.4997
     16 S1         -4.0111   -7.6532    0.5343 S.o2      1 <0>         2.7138
     17 O1         -3.1873   -8.6919    1.0459 O.2       1 <0>        -0.9570
     18 O2         -5.2080   -7.2421    1.1804 O.2       1 <0>        -0.9599
     19 N4         -4.4324   -8.0977   -1.0043 N.pl3     1 <0>        -1.2493
     20 C13         3.0398   -2.1151   -0.2429 C.2       1 <0>         0.5939
     21 O3          3.7228   -3.0897   -0.4994 O.2       1 <0>        -0.4751
     22 N5          3.4789   -0.8502   -0.1281 N.am      1 <0>        -0.6489
     23 H1         -0.8774    1.8294    0.9845 H         1 <0>         0.1360
     24 H2          1.2194    3.1045    0.8254 H         1 <0>         0.1383
     25 H3          3.3328    1.9679    0.3120 H         1 <0>         0.1359
     26 H4         -0.8723   -0.6056    0.6207 H         1 <0>         0.1159
     27 H5         -0.8637   -2.0642    0.0970 H         1 <0>         0.4018
     28 H6         -3.1311   -2.8560    0.3157 H         1 <0>         0.1524
     29 H7         -4.6282   -4.8280    0.5047 H         1 <0>         0.1648
     30 H8         -1.1769   -7.3324    0.2764 H         1 <0>         0.1855
     31 H9         -4.1136   -7.5832   -1.7623 H         1 <0>         0.4170
     32 H10        -4.9979   -8.8727   -1.1476 H         1 <0>         0.4231
     33 H11         4.4040   -0.5807   -0.2399 H         1 <0>         0.4274
@<TRIPOS>BOND
     1    1    6 ar
     2    1    2 ar
     3    1   23 1
     4    2    3 ar
     5    2   24 1
     6    3    4 ar
     7    3   25 1
     8    4   22 1
     9    4    5 ar
    10    5    6 ar
    11    5    7 1
    12    6   26 1
    13    7    8 2
    14    7   20 1
    15    8    9 1
    16    9   10 1
    17    9   27 1
    18   10   15 ar
    19   10   11 ar
    20   11   12 ar
    21   11   28 1
    22   12   13 ar
    23   12   29 1
    24   13   14 ar
    25   13   16 1
    26   14   15 ar
    27   14   30 1
    28   16   17 2
    29   16   18 2
    30   16   19 1
    31   19   31 1
    32   19   32 1
    33   20   21 2
    34   20   22 am
    35   22   33 1
