@<TRIPOS>MOLECULE
ZINC20211442
   47    50     0     0     0
SMALL
USER_CHARGES

@<TRIPOS>ATOM
      1 C1          1.4198    2.2889   -0.0429 C.3       1 <0>         0.0113
      2 O1          0.9647    0.9369   -0.1263 O.3       1 <0>        -0.2989
      3 C2         -0.3754    0.7433   -0.2485 C.ar      1 <0>         0.1319
      4 C3         -1.2332    1.8308   -0.2931 C.ar      1 <0>        -0.1487
      5 C4         -2.5954    1.6322   -0.4175 C.ar      1 <0>         0.0063
      6 C5         -3.1066    0.3497   -0.4977 C.ar      1 <0>        -0.0823
      7 C6         -2.2582   -0.7400   -0.4539 C.ar      1 <0>        -0.0440
      8 C7         -0.8892   -0.5486   -0.3350 C.ar      1 <0>         0.1162
      9 N1         -0.0259   -1.6525   -0.2963 N.pl3     1 <0>        -0.3585
     10 C8          0.2091   -2.5113   -1.3209 C.2       1 <0>         0.0746
     11 C9          1.1001   -3.4513   -0.9140 C.2       1 <0>        -0.1898
     12 C10         1.4402   -3.1787    0.4112 C.2       1 <0>        -0.0804
     13 C11         0.7326   -2.0451    0.7887 C.2       1 <0>        -0.0651
     14 C12         0.7782   -1.4143    2.0460 C.2       1 <0>         0.2173
     15 C13        -0.3274   -1.4504    2.8793 C.2       1 <0>        -0.3076
     16 C14        -0.3719   -0.6904    4.1589 C.cat     1 <0>         0.6101
     17 N2          0.2261    0.4586    4.3346 N.pl3     1 <0>        -0.6679
     18 N3         -1.1243   -1.3347    5.1613 N.pl3     1 <0>        -0.4926
     19 C15        -2.0868   -2.2443    4.7761 C.2       1 <0>         0.2745
     20 N4         -2.3230   -2.6633    3.5538 N.2       1 <0>        -0.4731
     21 C16        -1.5333   -2.2423    2.5439 C.2       1 <0>         0.5426
     22 O2         -1.8022   -2.5098    1.3835 O.2       1 <0>        -0.3872
     23 S1         -2.8163   -2.6602    6.2161 S.3       1 <0>         0.5305
     24 N5         -1.8514   -1.7863    7.2722 N.2       1 <0>        -0.2971
     25 C17        -1.0209   -1.1574    6.4994 C.2       1 <0>        -0.2600
     26 S2          0.2128   -0.0965    7.1755 S.o2      1 <0>         2.4665
     27 O3          0.3427   -0.5080    8.5293 O.2       1 <0>        -0.8287
     28 O4          1.3104   -0.1991    6.2787 O.2       1 <0>        -0.9031
     29 C18        -0.5070    1.5666    7.0943 C.3       1 <0>        -0.6511
     30 N6         -3.5096    2.7954   -0.4644 N.pl3     1 <0>         0.0228
     31 O5         -3.0645    3.9173   -0.3940 O.2       1 <0>        -0.1433
     32 O6         -4.7014    2.6236   -0.5731 O.3       1 <0>        -0.1307
     33 H1          2.5057    2.3016    0.0515 H         1 <0>         0.1204
     34 H2          1.1272    2.8271   -0.9445 H         1 <0>         0.0725
     35 H3          0.9739    2.7694    0.8279 H         1 <0>         0.0616
     36 H4         -0.8373    2.8336   -0.2304 H         1 <0>         0.1712
     37 H5         -4.1717    0.1995   -0.5944 H         1 <0>         0.1709
     38 H6         -2.6603   -1.7405   -0.5164 H         1 <0>         0.1741
     39 H7         -0.2404   -2.4559   -2.3013 H         1 <0>         0.1825
     40 H8          1.4790   -4.2673   -1.5114 H         1 <0>         0.1621
     41 H9          2.1273   -3.7408    1.0262 H         1 <0>         0.1596
     42 H10         1.6753   -0.9020    2.3610 H         1 <0>         0.1706
     43 H11         0.8135    0.8098    3.6472 H         1 <0>         0.4640
     44 H12        -1.3504    1.6314    7.7818 H         1 <0>         0.1760
     45 H13         0.2468    2.3028    7.3735 H         1 <0>         0.1797
     46 H14        -0.8499    1.7649    6.0788 H         1 <0>         0.1239
     47 H15         0.0824    0.9601    5.1524 H         1 <0>         0.4165
@<TRIPOS>BOND
     1    1    2 1
     2    1   33 1
     3    1   34 1
     4    1   35 1
     5    2    3 1
     6    3    8 ar
     7    3    4 ar
     8    4    5 ar
     9    4   36 1
    10    5    6 ar
    11    5   30 1
    12    6    7 ar
    13    6   37 1
    14    7    8 ar
    15    7   38 1
    16    8    9 1
    17    9   13 1
    18    9   10 1
    19   10   11 2
    20   10   39 1
    21   11   12 1
    22   11   40 1
    23   12   13 2
    24   12   41 1
    25   13   14 1
    26   14   15 2
    27   14   42 1
    28   15   21 1
    29   15   16 1
    30   16   17 2
    31   16   18 1
    32   17   43 1
    33   17   47 1
    34   18   25 1
    35   18   19 1
    36   19   20 2
    37   19   23 1
    38   20   21 1
    39   21   22 2
    40   23   24 1
    41   24   25 2
    42   25   26 1
    43   26   27 2
    44   26   28 2
    45   26   29 1
    46   29   44 1
    47   29   45 1
    48   29   46 1
    49   30   31 2
    50   30   32 1
