@<TRIPOS>MOLECULE
ZINC48795638
   39    41     0     0     0
SMALL
USER_CHARGES

@<TRIPOS>ATOM
      1 C1         -0.0157    1.3041    0.0092 C.2       1 <0>         0.0539
      2 C2          1.3095    1.7634   -0.0010 C.2       1 <0>        -0.0048
      3 C3          2.1255    0.6785   -0.0146 C.2       1 <0>         0.0312
      4 N1          1.3372   -0.4274   -0.0130 N.pl3     1 <0>        -0.3631
      5 N2          0.0021   -0.0041    0.0020 N.2       1 <0>        -0.2802
      6 C4          1.8011   -1.8169   -0.0256 C.3       1 <0>         0.1420
      7 C5          1.1897   -2.5695    1.1579 C.3       1 <0>         0.0668
      8 H1          0.1041   -2.4714    1.1478 H         1 <0>         0.0877
      9 C6          1.5951   -4.0642    1.1121 C.3       1 <0>        -0.1501
     10 C7          1.4631   -4.4515    2.6104 C.3       1 <0>        -0.1550
     11 C8          1.8908   -3.1509    3.3238 C.3       1 <0>         0.0492
     12 O1          1.7237   -2.0715    2.3949 O.3       1 <0>        -0.3753
     13 N3          1.7203    3.1097    0.0023 N.am      1 <0>        -0.6389
     14 C9          0.8006    4.0948    0.0169 C.2       1 <0>         0.5231
     15 O2         -0.3811    3.8212    0.0272 O.2       1 <0>        -0.4990
     16 C10         1.2404    5.5362    0.0204 C.3       1 <0>         0.0420
     17 H2          1.9187    5.7081    0.8562 H         1 <0>         0.0983
     18 C11         1.9573    5.8558   -1.2945 C.3       1 <0>         0.0366
     19 O3          2.2722    7.2511   -1.3304 O.3       1 <0>        -0.3712
     20 C12         1.1277    8.0999   -1.2014 C.3       1 <0>         0.0193
     21 C13         0.4108    7.7803    0.1136 C.3       1 <0>         0.0235
     22 O4          0.0960    6.3850    0.1510 O.3       1 <0>        -0.3490
     23 H3         -0.8997    1.9243    0.0250 H         1 <0>         0.2047
     24 H4          3.2054    0.6924   -0.0251 H         1 <0>         0.1765
     25 H5          1.4948   -2.2938   -0.9567 H         1 <0>         0.1002
     26 H6          2.8880   -1.8378    0.0529 H         1 <0>         0.1032
     27 H7          0.9048   -4.6398    0.4954 H         1 <0>         0.0897
     28 H8          2.6215   -4.1824    0.7648 H         1 <0>         0.0829
     29 H9          0.4324   -4.7075    2.8555 H         1 <0>         0.0794
     30 H10         2.1374   -5.2706    2.8601 H         1 <0>         0.0857
     31 H11         1.2617   -2.9849    4.1984 H         1 <0>         0.0695
     32 H12         2.9356   -3.2214    3.6263 H         1 <0>         0.0709
     33 H13         2.6653    3.3285   -0.0059 H         1 <0>         0.4105
     34 H14         2.8762    5.2732   -1.3594 H         1 <0>         0.1111
     35 H15         1.3073    5.6074   -2.1335 H         1 <0>         0.0707
     36 H16         1.4458    9.1424   -1.1988 H         1 <0>         0.1113
     37 H17         0.4498    7.9269   -2.0373 H         1 <0>         0.0663
     38 H18         1.0608    8.0287    0.9526 H         1 <0>         0.0660
     39 H19        -0.5082    8.3629    0.1785 H         1 <0>         0.1142
@<TRIPOS>BOND
     1    1    5 2
     2    1    2 1
     3    1   23 1
     4    2    3 2
     5    2   13 1
     6    3    4 1
     7    3   24 1
     8    4    5 1
     9    4    6 1
    10    6    7 1
    11    6   25 1
    12    6   26 1
    13    7    8 1
    14    7   12 1
    15    7    9 1
    16    9   10 1
    17    9   27 1
    18    9   28 1
    19   10   11 1
    20   10   29 1
    21   10   30 1
    22   11   12 1
    23   11   31 1
    24   11   32 1
    25   13   14 am
    26   13   33 1
    27   14   15 2
    28   14   16 1
    29   16   17 1
    30   16   22 1
    31   16   18 1
    32   18   19 1
    33   18   34 1
    34   18   35 1
    35   19   20 1
    36   20   21 1
    37   20   36 1
    38   20   37 1
    39   21   22 1
    40   21   38 1
    41   21   39 1
