@<TRIPOS>MOLECULE
ZINC51675058
   56    58     0     0     0
SMALL
USER_CHARGES

@<TRIPOS>ATOM
      1 C1         -2.8926    4.4076    0.2547 C.3       1 <0>        -0.1504
      2 C2         -2.2938    3.1326    0.8521 C.3       1 <0>        -0.1090
      3 C3         -2.0085    3.3513    2.3392 C.3       1 <0>        -0.1466
      4 C4         -3.2844    1.9782    0.6872 C.3       1 <0>         0.1380
      5 N1         -3.4661    1.6903   -0.7377 N.am      1 <0>        -0.7424
      6 C5         -4.3000    0.7049   -1.1251 C.2       1 <0>         0.7129
      7 O1         -4.9014    0.0549   -0.2920 O.2       1 <0>        -0.5659
      8 N2         -4.4672    0.4402   -2.4360 N.am      1 <0>        -0.5315
      9 N3         -3.7742    1.1892   -3.3959 N.am      1 <0>        -0.5303
     10 C6         -3.9414    0.9244   -4.7068 C.2       1 <0>         0.5188
     11 O2         -4.6918    0.0377   -5.0554 O.2       1 <0>        -0.5021
     12 C7         -3.1960    1.7302   -5.7393 C.3       1 <0>         0.0804
     13 H1         -2.9496    2.7103   -5.3310 H         1 <0>         0.0700
     14 C8         -1.9115    0.9996   -6.1317 C.3       1 <0>        -0.0643
     15 C9         -1.2845    1.6682   -7.3282 C.ar      1 <0>        -0.0692
     16 C10         0.0432    1.3933   -7.6192 C.ar      1 <0>        -0.1165
     17 C11         0.6548    1.9816   -8.7078 C.ar      1 <0>        -0.1170
     18 C12        -0.0604    2.8487   -9.5130 C.ar      1 <0>        -0.1179
     19 C13        -1.3815    3.1238   -9.2236 C.ar      1 <0>        -0.1127
     20 C14        -1.9969    2.5356   -8.1281 C.ar      1 <0>        -0.0780
     21 C15        -3.4369    2.8758   -7.8464 C.3       1 <0>         0.0940
     22 N4         -4.0323    1.8905   -6.9395 N.3       1 <0>        -0.5014
     23 C16        -5.4057    2.2658   -6.5778 C.3       1 <0>         0.0804
     24 C17        -6.3131    2.0524   -7.7619 C.ar      1 <0>        -0.0766
     25 C18        -6.5143    3.0736   -8.6715 C.ar      1 <0>        -0.1167
     26 C19        -7.3467    2.8778   -9.7576 C.ar      1 <0>        -0.1225
     27 C20        -7.9776    1.6606   -9.9344 C.ar      1 <0>        -0.1179
     28 C21        -7.7757    0.6390   -9.0252 C.ar      1 <0>        -0.1212
     29 C22        -6.9399    0.8334   -7.9414 C.ar      1 <0>        -0.0901
     30 H2         -2.1869    5.2300    0.3722 H         1 <0>         0.0609
     31 H3         -3.0959    4.2517   -0.8047 H         1 <0>         0.0504
     32 H4         -3.8215    4.6493    0.7712 H         1 <0>         0.0601
     33 H5         -1.3649    2.8908    0.3356 H         1 <0>         0.0774
     34 H6         -2.9374    3.5930    2.8557 H         1 <0>         0.0602
     35 H7         -1.5819    2.4430    2.7647 H         1 <0>         0.0600
     36 H8         -1.3028    4.1737    2.4566 H         1 <0>         0.0625
     37 H9         -2.8968    1.0923    1.1903 H         1 <0>         0.0720
     38 H10        -4.2423    2.2558    1.1269 H         1 <0>         0.0721
     39 H11        -2.9863    2.2090   -1.4023 H         1 <0>         0.3900
     40 H12        -5.0673   -0.2690   -2.7148 H         1 <0>         0.4445
     41 H13        -3.1740    1.8984   -3.1171 H         1 <0>         0.4182
     42 H14        -1.2120    1.0233   -5.2961 H         1 <0>         0.0860
     43 H15        -2.1449   -0.0364   -6.3771 H         1 <0>         0.0964
     44 H16         0.6018    0.7157   -6.9905 H         1 <0>         0.1231
     45 H17         1.6892    1.7649   -8.9303 H         1 <0>         0.1237
     46 H18         0.4139    3.3101  -10.3666 H         1 <0>         0.1239
     47 H19        -1.9393    3.8011   -9.8533 H         1 <0>         0.1229
     48 H20        -3.4907    3.8626   -7.3867 H         1 <0>         0.0516
     49 H21        -3.9942    2.8872   -8.7831 H         1 <0>         0.1001
     50 H22        -5.7436    1.6489   -5.7452 H         1 <0>         0.0983
     51 H23        -5.4305    3.3156   -6.2856 H         1 <0>         0.0451
     52 H24        -6.0214    4.0246   -8.5334 H         1 <0>         0.1168
     53 H25        -7.5044    3.6760  -10.4679 H         1 <0>         0.1208
     54 H26        -8.6284    1.5079  -10.7826 H         1 <0>         0.1206
     55 H27        -8.2688   -0.3119   -9.1632 H         1 <0>         0.1218
     56 H28        -6.7793    0.0341   -7.2332 H         1 <0>         0.1262
@<TRIPOS>BOND
     1    1    2 1
     2    1   30 1
     3    1   31 1
     4    1   32 1
     5    2    3 1
     6    2    4 1
     7    2   33 1
     8    3   34 1
     9    3   35 1
    10    3   36 1
    11    4    5 1
    12    4   37 1
    13    4   38 1
    14    5    6 am
    15    5   39 1
    16    6    7 2
    17    6    8 am
    18    8    9 1
    19    8   40 1
    20    9   10 am
    21    9   41 1
    22   10   11 2
    23   10   12 1
    24   12   13 1
    25   12   22 1
    26   12   14 1
    27   14   15 1
    28   14   42 1
    29   14   43 1
    30   15   20 ar
    31   15   16 ar
    32   16   17 ar
    33   16   44 1
    34   17   18 ar
    35   17   45 1
    36   18   19 ar
    37   18   46 1
    38   19   20 ar
    39   19   47 1
    40   20   21 1
    41   21   22 1
    42   21   48 1
    43   21   49 1
    44   22   23 1
    45   23   24 1
    46   23   50 1
    47   23   51 1
    48   24   29 ar
    49   24   25 ar
    50   25   26 ar
    51   25   52 1
    52   26   27 ar
    53   26   53 1
    54   27   28 ar
    55   27   54 1
    56   28   29 ar
    57   28   55 1
    58   29   56 1
