@<TRIPOS>MOLECULE
ZINC39671237
   57    60     0     0     0
SMALL
USER_CHARGES

@<TRIPOS>ATOM
      1 C1          0.1268    1.2006    0.5854 C.3       1 <0>        -0.1260
      2 C2          0.1375   -0.3003    0.4510 C.ar      1 <0>        -0.0567
      3 C3         -0.6404   -0.9108   -0.5181 C.ar      1 <0>        -0.1086
      4 C4         -0.6372   -2.2831   -0.6480 C.ar      1 <0>        -0.0690
      5 C5          0.1537   -3.0615    0.2004 C.ar      1 <0>        -0.1528
      6 C6          0.9382   -2.4420    1.1773 C.ar      1 <0>         0.1324
      7 C7          0.9290   -1.0615    1.2930 C.ar      1 <0>         0.0614
      8 F1          1.6899   -0.4580    2.2322 F         1 <0>        -0.1171
      9 F2          1.7060   -3.1865    2.0027 F         1 <0>        -0.1078
     10 C8          0.1606   -4.5324    0.0660 C.2       1 <0>         0.5987
     11 O1          0.2894   -5.2322    1.0517 O.2       1 <0>        -0.5115
     12 N1          0.0242   -5.0987   -1.1494 N.am      1 <0>        -0.6138
     13 C9         -0.0356   -4.4207   -2.4658 C.3       1 <0>         0.1078
     14 C10         0.7786   -5.3319   -3.4115 C.3       1 <0>        -0.1129
     15 H1          0.3175   -5.3629   -4.3987 H         1 <0>         0.1222
     16 C11         0.7312   -6.7216   -2.7545 C.3       1 <0>        -0.0737
     17 C12        -0.0933   -6.5409   -1.4719 C.3       1 <0>         0.1085
     18 C13         2.1409   -7.1900   -2.4066 C.3       1 <0>        -0.1489
     19 C14         2.0726   -8.5974   -1.8071 C.3       1 <0>        -0.0090
     20 N2          1.4555   -9.5135   -2.7740 N.4       1 <0>        -0.5049
     21 C15         0.0685   -9.1088   -3.0327 C.3       1 <0>        -0.0104
     22 C16         0.0520   -7.7229   -3.6837 C.3       1 <0>        -0.1338
     23 C17         2.2012   -4.8452   -3.5130 C.2       1 <0>         0.5207
     24 O2          2.7143   -4.2716   -2.5756 O.2       1 <0>        -0.5059
     25 N3          2.9034   -5.0472   -4.6455 N.am      1 <0>        -0.7281
     26 C18         4.2864   -4.5740   -4.7442 C.3       1 <0>         0.2235
     27 C19         4.8410   -4.9226   -6.1014 C.2       1 <0>         0.1238
     28 N4          4.7883   -4.1792   -7.1699 N.2       1 <0>        -0.2491
     29 N5          5.3619   -4.7920   -8.1451 N.2       1 <0>        -0.2840
     30 C20         5.7999   -5.9472   -7.7319 C.2       1 <0>         0.1839
     31 O3          5.4856   -6.0548   -6.4300 O.3       1 <0>        -0.2249
     32 C21         6.5301   -6.9724   -8.5607 C.3       1 <0>        -0.0654
     33 H2          0.9003    1.6281   -0.0526 H         1 <0>         0.0878
     34 H3         -0.8472    1.5855    0.2831 H         1 <0>         0.0847
     35 H4          0.3194    1.4739    1.6228 H         1 <0>         0.0798
     36 H5         -1.2522   -0.3097   -1.1744 H         1 <0>         0.1508
     37 H6         -1.2458   -2.7560   -1.4046 H         1 <0>         0.1445
     38 H7         -1.0678   -4.3442   -2.8073 H         1 <0>         0.0966
     39 H8          0.4198   -3.4322   -2.4052 H         1 <0>         0.1045
     40 H9          0.3213   -7.1461   -0.6657 H         1 <0>         0.0915
     41 H10        -1.1350   -6.8070   -1.6513 H         1 <0>         0.0892
     42 H11         2.7515   -7.2082   -3.3093 H         1 <0>         0.0938
     43 H12         2.5828   -6.5066   -1.6814 H         1 <0>         0.1253
     44 H13         3.0799   -8.9415   -1.5726 H         1 <0>         0.1393
     45 H14         1.4753   -8.5752   -0.8956 H         1 <0>         0.1361
     46 H15         1.9776   -9.4910   -3.6371 H         1 <0>         0.4270
     47 H16        -0.4013   -9.8299   -3.7017 H         1 <0>         0.1409
     48 H17        -0.4813   -9.0747   -2.0921 H         1 <0>         0.1341
     49 H18        -0.9790   -7.4154   -3.8589 H         1 <0>         0.1240
     50 H19         0.5874   -7.7601   -4.6325 H         1 <0>         0.0973
     51 H20         2.4931   -5.5059   -5.3953 H         1 <0>         0.4049
     52 H21         4.3110   -3.4928   -4.6084 H         1 <0>         0.1227
     53 H22         4.8896   -5.0510   -3.9717 H         1 <0>         0.1052
     54 H23         7.6029   -6.7882   -8.5041 H         1 <0>         0.1071
     55 H24         6.3121   -7.9700   -8.1794 H         1 <0>         0.0953
     56 H25         6.2034   -6.9005   -9.5981 H         1 <0>         0.1139
     57 H26         1.4670  -10.4511   -2.4014 H         1 <0>         0.4350
@<TRIPOS>BOND
     1    1    2 1
     2    1   33 1
     3    1   34 1
     4    1   35 1
     5    2    7 ar
     6    2    3 ar
     7    3    4 ar
     8    3   36 1
     9    4    5 ar
    10    4   37 1
    11    5    6 ar
    12    5   10 1
    13    6    7 ar
    14    6    9 1
    15    7    8 1
    16   10   11 2
    17   10   12 am
    18   12   17 1
    19   12   13 1
    20   13   14 1
    21   13   38 1
    22   13   39 1
    23   14   15 1
    24   14   16 1
    25   14   23 1
    26   16   22 1
    27   16   17 1
    28   16   18 1
    29   17   40 1
    30   17   41 1
    31   18   19 1
    32   18   42 1
    33   18   43 1
    34   19   20 1
    35   19   44 1
    36   19   45 1
    37   20   21 1
    38   20   46 1
    39   20   57 1
    40   21   22 1
    41   21   47 1
    42   21   48 1
    43   22   49 1
    44   22   50 1
    45   23   24 2
    46   23   25 am
    47   25   26 1
    48   25   51 1
    49   26   27 1
    50   26   52 1
    51   26   53 1
    52   27   31 1
    53   27   28 2
    54   28   29 1
    55   29   30 2
    56   30   31 1
    57   30   32 1
    58   32   54 1
    59   32   55 1
    60   32   56 1
