@<TRIPOS>MOLECULE
ZINC44040016
   52    54     0     0     0
SMALL
USER_CHARGES

@<TRIPOS>ATOM
      1 C1          0.0209    1.5368   -0.0120 C.3       1 <0>        -0.1546
      2 C2          0.0333    0.0068   -0.0142 C.3       1 <0>        -0.1049
      3 C3          0.7513   -0.4977   -1.2693 C.3       1 <0>        -0.1436
      4 C4          0.8300   -2.0252   -1.2259 C.3       1 <0>        -0.0063
      5 N1          1.5733   -2.4468   -0.0324 N.4       1 <0>        -0.3821
      6 C5          0.8532   -2.0285    1.1763 C.3       1 <0>        -0.0122
      7 C6          0.7753   -0.5011    1.2254 C.3       1 <0>        -0.1430
      8 C7          1.7134   -3.9091   -0.0357 C.3       1 <0>        -0.0058
      9 C8          2.5932   -4.3397    1.1396 C.3       1 <0>        -0.1636
     10 C9          2.7392   -5.8628    1.1361 C.3       1 <0>         0.1425
     11 N2          3.5816   -6.2752    2.2615 N.am      1 <0>        -0.7463
     12 C10         3.8500   -7.5810    2.4593 C.2       1 <0>         0.7069
     13 O1          3.3928   -8.4169    1.7038 O.2       1 <0>        -0.5642
     14 N3          4.6250   -7.9604    3.4946 N.am      1 <0>        -0.6806
     15 C11         4.8249   -9.3211    3.7577 C.ar      1 <0>         0.1512
     16 C12         4.9368   -9.7659    5.0686 C.ar      1 <0>        -0.1186
     17 C13         5.1334  -11.1073    5.3278 C.ar      1 <0>        -0.0908
     18 C14         5.2194  -12.0120    4.2780 C.ar      1 <0>         0.1411
     19 C15         5.1081  -11.5674    2.9673 C.ar      1 <0>        -0.1140
     20 C16         4.9057  -10.2269    2.7080 C.ar      1 <0>        -0.0912
     21 N4          5.4193  -13.3753    4.5416 N.pl3     1 <0>        -0.3329
     22 C17         5.5282  -14.3656    3.6352 C.2       1 <0>         0.2619
     23 N5          5.7079  -15.4890    4.2820 N.2       1 <0>        -0.5335
     24 C18         5.7194  -15.2585    5.5943 C.2       1 <0>         0.2123
     25 N6          5.5518  -13.9785    5.8030 N.2       1 <0>        -0.3156
     26 H1          1.0455    1.9084   -0.0250 H         1 <0>         0.0619
     27 H2         -0.5074    1.8971   -0.8947 H         1 <0>         0.0678
     28 H3         -0.4841    1.8948    0.8851 H         1 <0>         0.0676
     29 H4         -0.9910   -0.3659   -0.0042 H         1 <0>         0.0888
     30 H5          0.1975   -0.1868   -2.1552 H         1 <0>         0.1132
     31 H6          1.7583   -0.0821   -1.3043 H         1 <0>         0.0884
     32 H7         -0.1775   -2.4397   -1.1911 H         1 <0>         0.1295
     33 H8          1.3405   -2.3878   -2.1181 H         1 <0>         0.1317
     34 H9         -0.1549   -2.4429    1.1599 H         1 <0>         0.1298
     35 H10         1.3807   -2.3934    2.0576 H         1 <0>         0.1305
     36 H11         1.7829   -0.0856    1.2421 H         1 <0>         0.0881
     37 H12         0.2387   -0.1926    2.1226 H         1 <0>         0.1123
     38 H13         0.7296   -4.3686    0.0594 H         1 <0>         0.1348
     39 H14         2.1744   -4.2277   -0.9706 H         1 <0>         0.1367
     40 H15         3.5771   -3.8802    1.0445 H         1 <0>         0.0954
     41 H16         2.1322   -4.0211    2.0745 H         1 <0>         0.0950
     42 H17         1.7554   -6.3223    1.2312 H         1 <0>         0.0799
     43 H18         3.2002   -6.1814    0.2012 H         1 <0>         0.0804
     44 H19         3.9463   -5.6084    2.8642 H         1 <0>         0.4007
     45 H20         5.0442   -7.2909    4.0575 H         1 <0>         0.4103
     46 H21         4.8703   -9.0622    5.8852 H         1 <0>         0.1376
     47 H22         5.2208  -11.4531    6.3472 H         1 <0>         0.1454
     48 H23         5.1754  -12.2712    2.1509 H         1 <0>         0.1382
     49 H24         4.8147   -9.8818    1.6887 H         1 <0>         0.1520
     50 H25         5.4763  -14.2524    2.5624 H         1 <0>         0.2234
     51 H26         5.8505  -16.0072    6.3615 H         1 <0>         0.2258
     52 H27         2.4890   -2.0231   -0.0406 H         1 <0>         0.4224
@<TRIPOS>BOND
     1    1    2 1
     2    1   26 1
     3    1   27 1
     4    1   28 1
     5    2    7 1
     6    2    3 1
     7    2   29 1
     8    3    4 1
     9    3   30 1
    10    3   31 1
    11    4    5 1
    12    4   32 1
    13    4   33 1
    14    5    6 1
    15    5    8 1
    16    5   52 1
    17    6    7 1
    18    6   34 1
    19    6   35 1
    20    7   36 1
    21    7   37 1
    22    8    9 1
    23    8   38 1
    24    8   39 1
    25    9   10 1
    26    9   40 1
    27    9   41 1
    28   10   11 1
    29   10   42 1
    30   10   43 1
    31   11   12 am
    32   11   44 1
    33   12   13 2
    34   12   14 am
    35   14   15 1
    36   14   45 1
    37   15   20 ar
    38   15   16 ar
    39   16   17 ar
    40   16   46 1
    41   17   18 ar
    42   17   47 1
    43   18   19 ar
    44   18   21 1
    45   19   20 ar
    46   19   48 1
    47   20   49 1
    48   21   25 1
    49   21   22 1
    50   22   23 2
    51   22   50 1
    52   23   24 1
    53   24   25 2
    54   24   51 1
