@<TRIPOS>MOLECULE
ZINC14548161
   53    57     0     0     0
SMALL
USER_CHARGES
1-[(3aS,4R,9bS)-8-isopropoxy-3a,4,5,9b-tetrahydro-3H-cyclopenta[c]quinolin-4-yl]naphthalen-2-ol
@<TRIPOS>ATOM
      1 C1         10.5494    8.0979    1.2790 C.3       1 <0>        -0.1497
      2 C2          9.4831    7.4098    0.4244 C.3       1 <0>         0.0799
      3 C3         10.1463    6.3644   -0.4746 C.3       1 <0>        -0.1799
      4 O1          8.5301    6.7702    1.2758 O.3       1 <0>        -0.3151
      5 C4          7.2842    6.5712    0.7680 C.ar      1 <0>         0.0834
      6 C5          7.0165    6.8801   -0.5576 C.ar      1 <0>        -0.1718
      7 C6          5.7513    6.6840   -1.0715 C.ar      1 <0>        -0.1670
      8 C7          4.7368    6.1770   -0.2689 C.ar      1 <0>         0.2133
      9 C8          5.0145    5.8576    1.0645 C.ar      1 <0>        -0.0528
     10 C9          6.2789    6.0596    1.5745 C.ar      1 <0>        -0.1099
     11 C10         3.9105    5.3036    1.8785 C.3       1 <0>        -0.0344
     12 H1          3.8310    4.2382    1.6622 H         1 <0>         0.1010
     13 C11         3.8799    5.4781    3.3536 C.2       1 <0>        -0.1488
     14 C12         2.6136    5.5454    3.7465 C.2       1 <0>        -0.1722
     15 C13         1.6842    5.4525    2.5348 C.3       1 <0>        -0.0917
     16 C14         2.5870    5.9809    1.4123 C.3       1 <0>        -0.1012
     17 H2          2.6624    7.0682    1.4193 H         1 <0>         0.0954
     18 C15         2.3334    5.4521    0.0119 C.3       1 <0>         0.2167
     19 H3          1.3761    5.8165   -0.3608 H         1 <0>         0.0956
     20 N1          3.4410    5.9763   -0.8170 N.pl3     1 <0>        -0.7588
     21 C16         2.3515    3.9452    0.0129 C.ar      1 <0>        -0.1224
     22 C17         1.1655    3.2248    0.2301 C.ar      1 <0>        -0.0259
     23 C18        -0.0571    3.8827    0.4500 C.ar      1 <0>        -0.1140
     24 C19        -1.1868    3.1528    0.6576 C.ar      1 <0>        -0.1074
     25 C20        -1.1522    1.7595    0.6501 C.ar      1 <0>        -0.1199
     26 C21         0.0143    1.0885    0.4462 C.ar      1 <0>        -0.0995
     27 C22         1.2016    1.8078    0.2281 C.ar      1 <0>        -0.0621
     28 C23         2.4234    1.1480    0.0078 C.ar      1 <0>        -0.0874
     29 C24         3.5541    1.8743   -0.2004 C.ar      1 <0>        -0.1428
     30 C25         3.5211    3.2724   -0.1984 C.ar      1 <0>         0.1293
     31 O2          4.6677    3.9705   -0.4089 O.3       1 <0>        -0.4712
     32 H4         11.0547    7.3555    1.8968 H         1 <0>         0.0659
     33 H5         11.2764    8.5857    0.6296 H         1 <0>         0.0748
     34 H6         10.0769    8.8426    1.9195 H         1 <0>         0.0639
     35 H7          8.9778    8.1522   -0.1933 H         1 <0>         0.0701
     36 H8         10.8733    6.8523   -1.1239 H         1 <0>         0.0689
     37 H9         10.6516    5.6220    0.1432 H         1 <0>         0.0660
     38 H10         9.3866    5.8742   -1.0834 H         1 <0>         0.0625
     39 H11         7.7996    7.2743   -1.1883 H         1 <0>         0.1238
     40 H12         5.5482    6.9258   -2.1044 H         1 <0>         0.1176
     41 H13         6.4876    5.8181    2.6063 H         1 <0>         0.1227
     42 H14         4.7438    5.5393    3.9988 H         1 <0>         0.1285
     43 H15         2.2876    5.6506    4.7707 H         1 <0>         0.1274
     44 H16         0.8088    6.0888    2.6643 H         1 <0>         0.0714
     45 H17         1.3902    4.4199    2.3463 H         1 <0>         0.0862
     46 H18         3.2750    6.2049   -1.7450 H         1 <0>         0.3962
     47 H19        -0.0998    4.9619    0.4539 H         1 <0>         0.1278
     48 H20        -2.1249    3.6608    0.8260 H         1 <0>         0.1244
     49 H21        -2.0639    1.2040    0.8129 H         1 <0>         0.1239
     50 H22         0.0264    0.0086    0.4476 H         1 <0>         0.1274
     51 H23         2.4637    0.0688    0.0035 H         1 <0>         0.1306
     52 H24         4.4909    1.3641   -0.3693 H         1 <0>         0.1288
     53 H25         4.8415    4.1701   -1.3390 H         1 <0>         0.3823
@<TRIPOS>BOND
     1    1    2 1
     2    1   32 1
     3    1   33 1
     4    1   34 1
     5    2    3 1
     6    2    4 1
     7    2   35 1
     8    3   36 1
     9    3   37 1
    10    3   38 1
    11    4    5 1
    12    5   10 ar
    13    5    6 ar
    14    6    7 ar
    15    6   39 1
    16    7    8 ar
    17    7   40 1
    18    8   20 1
    19    8    9 ar
    20    9   10 ar
    21    9   11 1
    22   10   41 1
    23   11   12 1
    24   11   16 1
    25   11   13 1
    26   13   14 2
    27   13   42 1
    28   14   15 1
    29   14   43 1
    30   15   16 1
    31   15   44 1
    32   15   45 1
    33   16   17 1
    34   16   18 1
    35   18   19 1
    36   18   20 1
    37   18   21 1
    38   20   46 1
    39   21   30 ar
    40   21   22 ar
    41   22   27 ar
    42   22   23 ar
    43   23   24 ar
    44   23   47 1
    45   24   25 ar
    46   24   48 1
    47   25   26 ar
    48   25   49 1
    49   26   27 ar
    50   26   50 1
    51   27   28 ar
    52   28   29 ar
    53   28   51 1
    54   29   30 ar
    55   29   52 1
    56   30   31 1
    57   31   53 1
