@<TRIPOS>MOLECULE
ZINC39041075
   53    56     0     0     0
SMALL
USER_CHARGES

@<TRIPOS>ATOM
      1 C1         -1.9319   -2.3323   -2.0226 C.3       1 <0>        -0.1495
      2 C2         -0.8019   -2.5700   -3.0264 C.3       1 <0>         0.0817
      3 H1         -1.1720   -2.4523   -4.0448 H         1 <0>         0.1837
      4 C3          0.3375   -1.6082   -2.7691 C.2       1 <0>        -0.0236
      5 C4          1.4073   -2.3793   -2.4768 C.2       1 <0>        -0.1514
      6 C5          1.0130   -3.7875   -2.5332 C.2       1 <0>         0.3152
      7 N1         -0.2347   -3.9116   -2.8441 N.pl3     1 <0>        -0.5320
      8 C6          2.7869   -1.8707   -2.1463 C.3       1 <0>        -0.1070
      9 C7          0.2902   -0.1396   -2.8261 C.2       1 <0>         0.5245
     10 C8         -0.9814    0.5435   -3.0847 C.2       1 <0>        -0.5204
     11 C9         -1.8335    1.2747   -2.0738 C.3       1 <0>         0.2866
     12 H2         -2.1576    0.5890   -1.2909 H         1 <0>         0.0731
     13 N2         -2.9958    1.7846   -2.8108 N.am      1 <0>        -0.5993
     14 C10        -2.8660    1.4125   -4.0971 C.2       1 <0>         0.5094
     15 O1         -3.6577    1.6725   -4.9814 O.2       1 <0>        -0.4895
     16 C11        -1.6155    0.6458   -4.2770 C.2       1 <0>         0.2747
     17 O2         -1.1756    0.1265   -5.4462 O.3       1 <0>        -0.6539
     18 C12        -4.1017    2.5615   -2.2456 C.3       1 <0>         0.3259
     19 H3         -3.8337    2.9564   -1.2656 H         1 <0>         0.1095
     20 C13        -5.3616    1.7211   -2.1608 C.2       1 <0>        -0.3321
     21 C14        -6.1474    2.0680   -3.1574 C.2       1 <0>         0.0756
     22 O3         -5.5986    3.0339   -3.9328 O.3       1 <0>        -0.1352
     23 N3         -4.4992    3.6590   -3.1655 N.3       1 <0>        -0.4535
     24 C15        -7.5031    1.4596   -3.4083 C.3       1 <0>        -0.0960
     25 C16        -1.0576    2.4179   -1.4721 C.ar      1 <0>        -0.1091
     26 C17        -1.1578    3.6839   -2.0165 C.ar      1 <0>        -0.0700
     27 C18        -0.4458    4.7329   -1.4653 C.ar      1 <0>        -0.1525
     28 C19         0.3678    4.5184   -0.3679 C.ar      1 <0>        -0.0872
     29 C20         0.4711    3.2548    0.1803 C.ar      1 <0>        -0.2062
     30 C21        -0.2466    2.2013   -0.3679 C.ar      1 <0>         0.1356
     31 O4         -0.1511    0.9583    0.1731 O.3       1 <0>        -0.3170
     32 C22         0.6196    0.8289    1.3695 C.3       1 <0>         0.0283
     33 O5          1.3067    0.5092   -2.6585 O.2       1 <0>        -0.4206
     34 H4         -1.5621   -2.5044   -1.0118 H         1 <0>         0.0760
     35 H5         -2.2855   -1.3050   -2.1101 H         1 <0>         0.1206
     36 H6         -2.7530   -3.0182   -2.2308 H         1 <0>         0.0840
     37 H7          1.6789   -4.6158   -2.3410 H         1 <0>         0.2235
     38 H8          2.8694   -1.7173   -1.0703 H         1 <0>         0.0881
     39 H9          3.5299   -2.6008   -2.4672 H         1 <0>         0.0802
     40 H10         2.9592   -0.9261   -2.6622 H         1 <0>         0.1042
     41 H11        -5.5756    0.9703   -1.4145 H         1 <0>         0.1484
     42 H12        -4.8276    4.4618   -2.6500 H         1 <0>         0.3556
     43 H13        -8.2627    2.0330   -2.8770 H         1 <0>         0.0843
     44 H14        -7.7167    1.4764   -4.4771 H         1 <0>         0.0809
     45 H15        -7.5105    0.4294   -3.0524 H         1 <0>         0.0834
     46 H16        -1.7925    3.8539   -2.8735 H         1 <0>         0.1311
     47 H17        -0.5249    5.7216   -1.8927 H         1 <0>         0.1210
     48 H18         0.9233    5.3394    0.0607 H         1 <0>         0.1205
     49 H19         1.1067    3.0877    1.0373 H         1 <0>         0.1234
     50 H20         0.1477    1.3997    2.1692 H         1 <0>         0.0533
     51 H21         0.6729   -0.2216    1.6555 H         1 <0>         0.0925
     52 H22         1.6261    1.2098    1.1964 H         1 <0>         0.0548
     53 H23        -0.7158   -4.7483   -2.9405 H         1 <0>         0.4563
@<TRIPOS>BOND
     1    1    2 1
     2    1   34 1
     3    1   35 1
     4    1   36 1
     5    2    3 1
     6    2    7 1
     7    2    4 1
     8    4    5 2
     9    4    9 1
    10    5    6 1
    11    5    8 1
    12    6    7 2
    13    6   37 1
    14    7   53 1
    15    8   38 1
    16    8   39 1
    17    8   40 1
    18    9   10 1
    19    9   33 2
    20   10   16 2
    21   10   11 1
    22   11   12 1
    23   11   13 1
    24   11   25 1
    25   13   14 am
    26   13   18 1
    27   14   15 2
    28   14   16 1
    29   16   17 1
    30   18   19 1
    31   18   23 1
    32   18   20 1
    33   20   21 2
    34   20   41 1
    35   21   22 1
    36   21   24 1
    37   22   23 1
    38   23   42 1
    39   24   43 1
    40   24   44 1
    41   24   45 1
    42   25   30 ar
    43   25   26 ar
    44   26   27 ar
    45   26   46 1
    46   27   28 ar
    47   27   47 1
    48   28   29 ar
    49   28   48 1
    50   29   30 ar
    51   29   49 1
    52   30   31 1
    53   31   32 1
    54   32   50 1
    55   32   51 1
    56   32   52 1
