@<TRIPOS>MOLECULE
ZINC20577671
   47    49     0     0     0
SMALL
USER_CHARGES
N-(3,4-dimethoxyphenyl)-3-isopropylidene-2-oxo-indoline-5-sulfonamide
@<TRIPOS>ATOM
      1 C1         -3.9928   -3.5987   -2.3419 C.3       1 <0>        -0.1473
      2 C2         -5.3248   -2.9039   -2.4600 C.2       1 <0>         0.0365
      3 C3         -5.5227   -1.7219   -1.8510 C.2       1 <0>        -0.1962
      4 C4         -4.6002   -1.0133   -0.9290 C.ar      1 <0>        -0.1196
      5 C5         -3.3374   -1.3116   -0.4330 C.ar      1 <0>         0.0314
      6 C6         -2.7154   -0.4323    0.4313 C.ar      1 <0>        -0.7017
      7 C7         -3.3516    0.7391    0.8051 C.ar      1 <0>         0.0167
      8 C8         -4.6038    1.0462    0.3128 C.ar      1 <0>        -0.1593
      9 C9         -5.2454    0.1720   -0.5583 C.ar      1 <0>         0.2015
     10 N1         -6.4864    0.2375   -1.1833 N.am      1 <0>        -0.6663
     11 C10        -6.7080   -0.8412   -1.9536 C.2       1 <0>         0.5713
     12 O1         -7.7047   -1.0554   -2.6172 O.2       1 <0>        -0.4950
     13 S1         -1.1138   -0.8050    1.0644 S.o2      1 <0>         2.6972
     14 O2         -0.9212   -2.2014    0.8855 O.2       1 <0>        -0.9502
     15 O3         -1.0252   -0.1807    2.3379 O.2       1 <0>        -0.9506
     16 N2         -0.0125   -0.0463    0.0878 N.pl3     1 <0>        -1.0680
     17 C11         0.0690   -0.3827   -1.2679 C.ar      1 <0>         0.1517
     18 C12         0.0906   -1.7169   -1.6522 C.ar      1 <0>        -0.1498
     19 C13         0.1662   -2.0508   -2.9912 C.ar      1 <0>        -0.1515
     20 C14         0.2312   -1.0552   -3.9523 C.ar      1 <0>         0.0934
     21 C15         0.2151    0.2826   -3.5703 C.ar      1 <0>         0.1173
     22 C16         0.1340    0.6174   -2.2286 C.ar      1 <0>        -0.1834
     23 O4          0.2785    1.2605   -4.5132 O.3       1 <0>        -0.3025
     24 C17         0.2569    2.6118   -4.0488 C.3       1 <0>         0.0211
     25 O5          0.3113   -1.3857   -5.2700 O.3       1 <0>        -0.3050
     26 C18         0.3233   -2.7783   -5.5901 C.3       1 <0>         0.0209
     27 C19        -6.4350   -3.5341   -3.2609 C.3       1 <0>        -0.1603
     28 H1         -4.0217   -4.5446   -2.9026 H         1 <0>         0.0824
     29 H2         -3.7803   -3.8066   -1.2828 H         1 <0>         0.0894
     30 H3         -3.2041   -2.9521   -2.7541 H         1 <0>         0.0879
     31 H4         -2.8441   -2.2279   -0.7220 H         1 <0>         0.1468
     32 H5         -2.8619    1.4206    1.4849 H         1 <0>         0.1471
     33 H6         -5.0886    1.9650    0.6083 H         1 <0>         0.1396
     34 H7         -7.1434    1.1030   -1.0123 H         1 <0>         0.4473
     35 H8          0.6550    0.7221    0.5049 H         1 <0>         0.4541
     36 H9          0.0445   -2.4945   -0.9041 H         1 <0>         0.1602
     37 H10         0.1787   -3.0891   -3.2884 H         1 <0>         0.1435
     38 H11         0.1217    1.6553   -1.9302 H         1 <0>         0.1417
     39 H12         0.3136    3.2959   -4.9084 H         1 <0>         0.1039
     40 H13         1.1167    2.7851   -3.3849 H         1 <0>         0.0575
     41 H14        -0.6762    2.7945   -3.4957 H         1 <0>         0.0560
     42 H15         0.3905   -2.9032   -6.6809 H         1 <0>         0.1031
     43 H16        -0.6021   -3.2467   -5.2237 H         1 <0>         0.0566
     44 H17         1.1907   -3.2569   -5.1121 H         1 <0>         0.0578
     45 H18        -7.3225   -2.8849   -3.2314 H         1 <0>         0.1008
     46 H19        -6.6845   -4.5160   -2.8323 H         1 <0>         0.0867
     47 H20        -6.1083   -3.6614   -4.3035 H         1 <0>         0.0851
@<TRIPOS>BOND
     1    1    2 1
     2    1   28 1
     3    1   29 1
     4    1   30 1
     5    2    3 2
     6    2   27 1
     7    3   11 1
     8    3    4 1
     9    4    9 ar
    10    4    5 ar
    11    5    6 ar
    12    5   31 1
    13    6    7 ar
    14    6   13 1
    15    7    8 ar
    16    7   32 1
    17    8    9 ar
    18    8   33 1
    19    9   10 1
    20   10   11 am
    21   10   34 1
    22   11   12 2
    23   13   14 2
    24   13   15 2
    25   13   16 1
    26   16   17 1
    27   16   35 1
    28   17   22 ar
    29   17   18 ar
    30   18   19 ar
    31   18   36 1
    32   19   20 ar
    33   19   37 1
    34   20   21 ar
    35   20   25 1
    36   21   22 ar
    37   21   23 1
    38   22   38 1
    39   23   24 1
    40   24   39 1
    41   24   40 1
    42   24   41 1
    43   25   26 1
    44   26   42 1
    45   26   43 1
    46   26   44 1
    47   27   45 1
    48   27   46 1
    49   27   47 1
