@<TRIPOS>MOLECULE
ZINC39671292
   60    64     0     0     0
SMALL
USER_CHARGES

@<TRIPOS>ATOM
      1 C1         -2.6455   -2.0686    7.0507 C.3       1 <0>        -0.0656
      2 C2         -1.9220   -2.1314    5.7302 C.2       1 <0>         0.1837
      3 N1         -1.4743   -1.1163    5.0474 N.2       1 <0>        -0.2834
      4 N2         -0.9102   -1.5406    3.9717 N.2       1 <0>        -0.2481
      5 C3         -0.9788   -2.8410    3.9316 C.2       1 <0>         0.1228
      6 O1         -1.6151   -3.2450    5.0439 O.3       1 <0>        -0.2257
      7 C4         -0.4388   -3.7293    2.8406 C.3       1 <0>         0.2229
      8 N3          0.9430   -4.1019    3.1534 N.am      1 <0>        -0.7282
      9 C5          1.6331   -4.8981    2.3130 C.2       1 <0>         0.5273
     10 O2          1.1100   -5.3061    1.2977 O.2       1 <0>        -0.5080
     11 C6          3.0545   -5.2814    2.6348 C.3       1 <0>        -0.1120
     12 H1          3.5684   -4.4540    3.1241 H         1 <0>         0.1183
     13 C7          3.8044   -5.6954    1.3488 C.3       1 <0>         0.1178
     14 N4          4.6771   -6.8170    1.7689 N.am      1 <0>        -0.6223
     15 C8          3.8444   -7.5977    2.7149 C.3       1 <0>         0.0948
     16 C9          3.0825   -6.5327    3.5284 C.3       1 <0>        -0.0728
     17 C10         3.8201   -6.2357    4.8305 C.3       1 <0>        -0.1375
     18 C11         3.7854   -7.4775    5.7258 C.3       1 <0>        -0.0117
     19 N5          2.3913   -7.8446    6.0025 N.4       1 <0>        -0.5052
     20 C12         1.7145   -8.2180    4.7547 C.3       1 <0>        -0.0077
     21 C13         1.6619   -7.0076    3.8181 C.3       1 <0>        -0.1503
     22 C14         5.9422   -7.0701    1.3790 C.2       1 <0>         0.5463
     23 O3          6.5253   -6.2831    0.6638 O.2       1 <0>        -0.4804
     24 C15         6.6321   -8.3311    1.8316 C.3       1 <0>         0.0425
     25 H2          6.5744   -8.4122    2.9171 H         1 <0>         0.1034
     26 C16         5.9595   -9.5497    1.1852 C.3       1 <0>         0.0334
     27 O4          6.6467  -10.7264    1.6243 O.3       1 <0>        -0.2998
     28 C17         8.0068  -10.6912    1.5840 C.ar      1 <0>         0.0397
     29 C18         8.7204  -11.8792    1.6406 C.ar      1 <0>        -0.1083
     30 C19        10.1018  -11.8594    1.6041 C.ar      1 <0>        -0.1094
     31 C20        10.7760  -10.6561    1.5108 C.ar      1 <0>        -0.1067
     32 C21        10.0709   -9.4689    1.4525 C.ar      1 <0>        -0.1067
     33 C22         8.6844   -9.4818    1.4876 C.ar      1 <0>         0.0474
     34 O5          8.0037   -8.3048    1.4218 O.3       1 <0>        -0.2781
     35 H3         -1.9212   -2.1109    7.8642 H         1 <0>         0.1042
     36 H4         -3.2077   -1.1368    7.1130 H         1 <0>         0.1147
     37 H5         -3.3308   -2.9125    7.1300 H         1 <0>         0.0976
     38 H6         -1.0502   -4.6288    2.7685 H         1 <0>         0.1077
     39 H7         -0.4649   -3.1951    1.8908 H         1 <0>         0.1241
     40 H8          1.3614   -3.7756    3.9655 H         1 <0>         0.4048
     41 H9          3.0986   -6.0276    0.5876 H         1 <0>         0.1057
     42 H10         4.4050   -4.8659    0.9754 H         1 <0>         0.1023
     43 H11         3.1460   -8.2340    2.1712 H         1 <0>         0.0950
     44 H12         4.4749   -8.1974    3.3713 H         1 <0>         0.0864
     45 H13         4.8553   -5.9743    4.6109 H         1 <0>         0.1206
     46 H14         3.3350   -5.4045    5.3422 H         1 <0>         0.0990
     47 H15         4.2850   -8.3039    5.2202 H         1 <0>         0.1325
     48 H16         4.2975   -7.2633    6.6639 H         1 <0>         0.1422
     49 H17         2.3709   -8.6254    6.6413 H         1 <0>         0.4358
     50 H18         2.2630   -9.0269    4.2721 H         1 <0>         0.1345
     51 H19         0.7001   -8.5494    4.9769 H         1 <0>         0.1415
     52 H20         1.0994   -6.2040    4.2933 H         1 <0>         0.0988
     53 H21         1.1754   -7.2906    2.8847 H         1 <0>         0.1276
     54 H22         4.9146   -9.5983    1.4914 H         1 <0>         0.1210
     55 H23         6.0218   -9.4711    0.0998 H         1 <0>         0.0887
     56 H24         8.1961  -12.8206    1.7137 H         1 <0>         0.1380
     57 H25        10.6555  -12.7856    1.6481 H         1 <0>         0.1382
     58 H26        11.8556  -10.6437    1.4838 H         1 <0>         0.1388
     59 H27        10.6001   -8.5302    1.3798 H         1 <0>         0.1394
     60 H28         1.9147   -7.0593    6.4201 H         1 <0>         0.4285
@<TRIPOS>BOND
     1    1    2 1
     2    1   35 1
     3    1   36 1
     4    1   37 1
     5    2    6 1
     6    2    3 2
     7    3    4 1
     8    4    5 2
     9    5    6 1
    10    5    7 1
    11    7    8 1
    12    7   38 1
    13    7   39 1
    14    8    9 am
    15    8   40 1
    16    9   10 2
    17    9   11 1
    18   11   12 1
    19   11   16 1
    20   11   13 1
    21   13   14 1
    22   13   41 1
    23   13   42 1
    24   14   15 1
    25   14   22 am
    26   15   16 1
    27   15   43 1
    28   15   44 1
    29   16   21 1
    30   16   17 1
    31   17   18 1
    32   17   45 1
    33   17   46 1
    34   18   19 1
    35   18   47 1
    36   18   48 1
    37   19   20 1
    38   19   49 1
    39   19   60 1
    40   20   21 1
    41   20   50 1
    42   20   51 1
    43   21   52 1
    44   21   53 1
    45   22   23 2
    46   22   24 1
    47   24   25 1
    48   24   34 1
    49   24   26 1
    50   26   27 1
    51   26   54 1
    52   26   55 1
    53   27   28 1
    54   28   33 ar
    55   28   29 ar
    56   29   30 ar
    57   29   56 1
    58   30   31 ar
    59   30   57 1
    60   31   32 ar
    61   31   58 1
    62   32   33 ar
    63   32   59 1
    64   33   34 1
