@<TRIPOS>MOLECULE
ZINC29708594
   46    49     0     0     0
SMALL
USER_CHARGES
N-(5-chloro-2,4-dimethoxy-phenyl)-1-cyclopropyl-2,4-dioxo-pyrido[2,3-d]pyrimidine-6-carboxamide
@<TRIPOS>ATOM
      1 C1          2.6344   -1.4645    2.4291 C.3       1 <0>         0.0234
      2 O1          2.3716   -0.8122    3.6731 O.3       1 <0>        -0.3142
      3 C2          1.6220    0.3216    3.6294 C.ar      1 <0>         0.1442
      4 C3          1.1504    0.7949    2.4160 C.ar      1 <0>        -0.2672
      5 C4          0.3859    1.9508    2.3731 C.ar      1 <0>         0.1608
      6 C5          0.0969    2.6373    3.5446 C.ar      1 <0>        -0.0826
      7 C6          0.5617    2.1644    4.7577 C.ar      1 <0>        -0.0587
      8 C7          1.3270    1.0082    4.8048 C.ar      1 <0>         0.1017
      9 N1          1.8035    0.5316    6.0345 N.am      1 <0>        -0.6631
     10 C8          1.2196    0.9277    7.1828 C.2       1 <0>         0.5714
     11 O2          0.2196    1.6188    7.1495 O.2       1 <0>        -0.5120
     12 C9          1.7940    0.5227    8.4811 C.ar      1 <0>        -0.2299
     13 C10         1.1947    0.9290    9.6797 C.ar      1 <0>         0.0940
     14 C11         1.7816    0.5162   10.8704 C.ar      1 <0>        -0.2549
     15 C12         1.2262    0.8928   12.1820 C.2       1 <0>         0.5738
     16 O3          0.2275    1.5817   12.2632 O.2       1 <0>        -0.4827
     17 N2          1.8574    0.4510   13.2922 N.am      1 <0>        -0.6750
     18 H1          1.4690    0.7140   14.2872 H         1 <0>         0.4689
     19 C13         2.9597   -0.3099   13.2055 C.2       1 <0>         0.7071
     20 O4          3.4899   -0.6821   14.2341 O.2       1 <0>        -0.5245
     21 N3          3.5033   -0.6792   12.0342 N.am      1 <0>        -0.5245
     22 C14         2.9409   -0.2844   10.8362 C.ar      1 <0>         0.4266
     23 N4          3.4707   -0.6438    9.6774 N.ar      1 <0>        -0.5089
     24 C15         2.9404   -0.2767    8.5301 C.ar      1 <0>         0.2150
     25 C16         4.7084   -1.5121   12.0273 C.3       1 <0>        -0.0039
     26 C17         4.7265   -2.7206   11.0891 C.3       1 <0>        -0.1077
     27 C18         4.5931   -2.9262   12.6001 C.3       1 <0>        -0.1213
     28 Cl1        -0.8546    4.0882    3.4869 Cl        1 <0>        -0.0474
     29 O5         -0.0766    2.4155    1.1817 O.3       1 <0>        -0.2995
     30 C19         0.2635    1.6628    0.0156 C.3       1 <0>         0.0207
     31 H2          3.2462   -2.3611    2.6073 H         1 <0>         0.1082
     32 H3          3.1760   -0.7776    1.7622 H         1 <0>         0.0595
     33 H4          1.6832   -1.7569    1.9603 H         1 <0>         0.0593
     34 H5          1.3779    0.2635    1.5037 H         1 <0>         0.1481
     35 H6          0.3328    2.6977    5.6685 H         1 <0>         0.1786
     36 H7          2.6539   -0.1656    6.0619 H         1 <0>         0.4387
     37 H8          0.3059    1.5426    9.6792 H         1 <0>         0.1713
     38 H9          3.4026   -0.5957    7.6076 H         1 <0>         0.1751
     39 H10         5.3473   -0.6341   12.2032 H         1 <0>         0.1399
     40 H11         3.8854   -2.6498   10.3838 H         1 <0>         0.1194
     41 H12         5.6736   -2.7365   10.5298 H         1 <0>         0.1215
     42 H13         5.4300   -3.1119   13.2894 H         1 <0>         0.1205
     43 H14         3.6418   -3.0253   13.1433 H         1 <0>         0.1067
     44 H15        -0.1709    2.1458   -0.8721 H         1 <0>         0.1076
     45 H16        -0.1347    0.6417    0.1093 H         1 <0>         0.0580
     46 H17         1.3578    1.6216   -0.0879 H         1 <0>         0.0581
@<TRIPOS>BOND
     1    1    2 1
     2    1   31 1
     3    1   32 1
     4    1   33 1
     5    2    3 1
     6    3    8 ar
     7    3    4 ar
     8    4    5 ar
     9    4   34 1
    10    5    6 ar
    11    5   29 1
    12    6    7 ar
    13    6   28 1
    14    7    8 ar
    15    7   35 1
    16    8    9 1
    17    9   10 am
    18    9   36 1
    19   10   11 2
    20   10   12 1
    21   12   24 ar
    22   12   13 ar
    23   13   14 ar
    24   13   37 1
    25   14   22 ar
    26   14   15 1
    27   15   16 2
    28   15   17 am
    29   17   18 1
    30   17   19 am
    31   19   20 2
    32   19   21 am
    33   21   22 1
    34   21   25 1
    35   22   23 ar
    36   23   24 ar
    37   24   38 1
    38   25   27 1
    39   25   26 1
    40   25   39 1
    41   26   27 1
    42   26   40 1
    43   26   41 1
    44   27   42 1
    45   27   43 1
    46   29   30 1
    47   30   44 1
    48   30   45 1
    49   30   46 1
