@<TRIPOS>MOLECULE
ZINC66223585
   59    61     0     0     0
SMALL
USER_CHARGES

@<TRIPOS>ATOM
      1 C1          1.8654    0.7269    1.3993 C.3       1 <0>        -0.1655
      2 C2          1.4922    1.6158    0.2113 C.3       1 <0>         0.1683
      3 C3         -0.0206    1.5611   -0.0112 C.3       1 <0>        -0.1656
      4 C4          1.9131    3.0579    0.5013 C.3       1 <0>        -0.1572
      5 N1          2.1801    1.1386   -0.9908 N.am      1 <0>        -0.7191
      6 C5          1.9622   -0.1133   -1.4398 C.2       1 <0>         0.5598
      7 O1          1.1946   -0.8467   -0.8471 O.2       1 <0>        -0.5261
      8 C6          2.6554   -0.5942   -2.6510 C.ar      1 <0>        -0.1398
      9 C7          3.5424    0.2456   -3.3300 C.ar      1 <0>        -0.0659
     10 C8          4.1877   -0.2059   -4.4591 C.ar      1 <0>        -0.1252
     11 C9          3.9572   -1.4970   -4.9248 C.ar      1 <0>         0.1569
     12 C10         3.0740   -2.3356   -4.2510 C.ar      1 <0>        -0.1410
     13 C11         2.4304   -1.8921   -3.1178 C.ar      1 <0>        -0.0358
     14 N2          4.6112   -1.9507   -6.0676 N.am      1 <0>        -0.6367
     15 C12         5.8624   -1.5300   -6.3398 C.2       1 <0>         0.5124
     16 O2          6.4550   -0.8328   -5.5426 O.2       1 <0>        -0.4886
     17 C13         6.5195   -1.9218   -7.6226 C.2       1 <0>         0.5337
     18 O3          5.9269   -2.6190   -8.4198 O.2       1 <0>        -0.4942
     19 N3          7.7707   -1.5011   -7.8948 N.am      1 <0>        -0.5972
     20 C14         8.6019   -0.6617   -7.0195 C.3       1 <0>         0.1047
     21 C15         9.9369   -0.4158   -7.7535 C.3       1 <0>        -0.1470
     22 C16         9.5661   -0.6594   -9.2403 C.3       1 <0>         0.0086
     23 H1          9.1134    0.2290   -9.6806 H         1 <0>         0.1573
     24 C17         8.5349   -1.8117   -9.1167 C.3       1 <0>         0.0971
     25 N4         10.7404   -1.0864  -10.0127 N.4       1 <0>        -0.3870
     26 C18        10.3850   -1.2300  -11.4477 C.3       1 <0>        -0.0084
     27 C19        11.7534   -1.1143  -12.1652 C.3       1 <0>        -0.1449
     28 C20        12.4914   -0.0421  -11.3312 C.3       1 <0>        -0.1447
     29 C21        11.7913   -0.0471   -9.9596 C.3       1 <0>        -0.0073
     30 H2          1.5655   -0.3005    1.1928 H         1 <0>         0.0786
     31 H3          2.9431    0.7659    1.5579 H         1 <0>         0.0542
     32 H4          1.3535    1.0820    2.2938 H         1 <0>         0.0662
     33 H5         -0.5325    1.9162    0.8833 H         1 <0>         0.0662
     34 H6         -0.2865    2.1944   -0.8575 H         1 <0>         0.0545
     35 H7         -0.3205    0.5337   -0.2177 H         1 <0>         0.0787
     36 H8          2.9909    3.0969    0.6598 H         1 <0>         0.0623
     37 H9          1.6472    3.6912   -0.3451 H         1 <0>         0.0625
     38 H10         1.4013    3.4130    1.3957 H         1 <0>         0.0773
     39 H11         2.7925    1.7237   -1.4636 H         1 <0>         0.3974
     40 H12         3.7211    1.2479   -2.9696 H         1 <0>         0.1324
     41 H13         4.8733    0.4426   -4.9843 H         1 <0>         0.1390
     42 H14         2.8969   -3.3369   -4.6150 H         1 <0>         0.1387
     43 H15         1.7488   -2.5448   -2.5927 H         1 <0>         0.1469
     44 H16         4.1663   -2.5695   -6.6677 H         1 <0>         0.4270
     45 H17         8.1012    0.2883   -6.8326 H         1 <0>         0.0991
     46 H18         8.7864   -1.1776   -6.0773 H         1 <0>         0.1004
     47 H19        10.2764    0.6091   -7.6036 H         1 <0>         0.1161
     48 H20        10.6949   -1.1264   -7.4237 H         1 <0>         0.1009
     49 H21         9.0439   -2.7699   -9.0125 H         1 <0>         0.0939
     50 H22         7.8748   -1.8242   -9.9840 H         1 <0>         0.1113
     51 H23         9.9327   -2.2036  -11.6365 H         1 <0>         0.1375
     52 H24         9.7174   -0.4273  -11.7609 H         1 <0>         0.1358
     53 H25        12.2876   -2.0639  -12.1322 H         1 <0>         0.0993
     54 H26        11.6223   -0.7798  -13.1943 H         1 <0>         0.1184
     55 H27        13.5429   -0.3068  -11.2201 H         1 <0>         0.1065
     56 H28        12.3944    0.9362  -11.8019 H         1 <0>         0.1049
     57 H29        11.3408    0.9270   -9.7691 H         1 <0>         0.1319
     58 H30        12.5106   -0.2860   -9.1764 H         1 <0>         0.1340
     59 H31        11.0958   -1.9593   -9.6523 H         1 <0>         0.4269
@<TRIPOS>BOND
     1    1    2 1
     2    1   30 1
     3    1   31 1
     4    1   32 1
     5    2    3 1
     6    2    4 1
     7    2    5 1
     8    3   33 1
     9    3   34 1
    10    3   35 1
    11    4   36 1
    12    4   37 1
    13    4   38 1
    14    5    6 am
    15    5   39 1
    16    6    7 2
    17    6    8 1
    18    8   13 ar
    19    8    9 ar
    20    9   10 ar
    21    9   40 1
    22   10   11 ar
    23   10   41 1
    24   11   12 ar
    25   11   14 1
    26   12   13 ar
    27   12   42 1
    28   13   43 1
    29   14   15 am
    30   14   44 1
    31   15   16 2
    32   15   17 1
    33   17   18 2
    34   17   19 am
    35   19   24 1
    36   19   20 1
    37   20   21 1
    38   20   45 1
    39   20   46 1
    40   21   22 1
    41   21   47 1
    42   21   48 1
    43   22   23 1
    44   22   24 1
    45   22   25 1
    46   24   49 1
    47   24   50 1
    48   25   29 1
    49   25   26 1
    50   25   59 1
    51   26   27 1
    52   26   51 1
    53   26   52 1
    54   27   28 1
    55   27   53 1
    56   27   54 1
    57   28   29 1
    58   28   55 1
    59   28   56 1
    60   29   57 1
    61   29   58 1
