@<TRIPOS>MOLECULE
ZINC55676178
   45    47     0     0     0
SMALL
USER_CHARGES

@<TRIPOS>ATOM
      1 C1          1.6425    1.0125   -0.2766 C.3       1 <0>        -0.1188
      2 C2          0.8094   -0.2351   -0.1332 C.ar      1 <0>        -0.0657
      3 C3          0.0396   -0.6771   -1.1936 C.ar      1 <0>        -0.1161
      4 C4         -0.7266   -1.8212   -1.0662 C.ar      1 <0>        -0.0721
      5 C5         -0.7251   -2.5265    0.1212 C.ar      1 <0>        -0.1253
      6 C6          0.0474   -2.0855    1.1882 C.ar      1 <0>         0.1382
      7 C7          0.8200   -0.9388    1.0550 C.ar      1 <0>        -0.1104
      8 N1          0.0513   -2.7964    2.3904 N.pl3     1 <0>        -0.9476
      9 C8          0.4919   -4.1934    2.4139 C.3       1 <0>         0.0878
     10 S1         -0.4422   -2.0602    3.7893 S.o2      1 <0>         2.6845
     11 O1          0.2726   -2.6811    4.8490 O.2       1 <0>        -0.9419
     12 O2         -0.3889   -0.6602    3.5520 O.2       1 <0>        -0.9348
     13 C9         -2.1407   -2.4674    4.0212 C.ar      1 <0>        -0.6664
     14 C10        -3.1264   -1.6593    3.4842 C.ar      1 <0>        -0.0013
     15 C11        -4.4536   -1.9814    3.6676 C.ar      1 <0>        -0.1354
     16 C12        -4.8189   -3.1185    4.3921 C.ar      1 <0>         0.1860
     17 C13        -3.8316   -3.9279    4.9301 C.ar      1 <0>         0.1071
     18 C14        -2.4894   -3.5946    4.7330 C.ar      1 <0>        -0.0150
     19 N2         -4.0917   -5.0801    5.6657 N.am      1 <0>        -0.6607
     20 C15        -5.0463   -5.2149    6.5831 C.2       1 <0>         0.5286
     21 O3         -5.1476   -6.2618    7.1873 O.2       1 <0>        -0.5051
     22 C16        -6.0034   -4.0910    6.8855 C.3       1 <0>        -0.1653
     23 C17        -6.7867   -3.7882    5.6344 C.2       1 <0>         0.5295
     24 O4         -7.9913   -3.9306    5.6372 O.2       1 <0>        -0.5018
     25 N3         -6.1815   -3.3670    4.5267 N.am      1 <0>        -0.6638
     26 C18        -1.5647   -2.2986   -2.2241 C.3       1 <0>        -0.1160
     27 H1          2.6308    0.7482   -0.6528 H         1 <0>         0.0736
     28 H2          1.1582    1.6945   -0.9754 H         1 <0>         0.0700
     29 H3          1.7411    1.4971    0.6947 H         1 <0>         0.0713
     30 H4          0.0366   -0.1274   -2.1232 H         1 <0>         0.1265
     31 H5         -1.3240   -3.4197    0.2202 H         1 <0>         0.1264
     32 H6          1.4248   -0.5954    1.8813 H         1 <0>         0.1292
     33 H7          1.5655   -4.2327    2.5983 H         1 <0>         0.0714
     34 H8         -0.0327   -4.7265    3.2069 H         1 <0>         0.0748
     35 H9          0.2707   -4.6604    1.4542 H         1 <0>         0.0811
     36 H10        -2.8564   -0.7773    2.9224 H         1 <0>         0.1538
     37 H11        -5.2200   -1.3473    3.2469 H         1 <0>         0.1497
     38 H12        -1.7163   -4.2250    5.1470 H         1 <0>         0.1542
     39 H13        -3.5290   -5.8516    5.4949 H         1 <0>         0.4161
     40 H14        -6.6843   -4.3923    7.6816 H         1 <0>         0.1473
     41 H15        -5.4459   -3.2064    7.1932 H         1 <0>         0.1294
     42 H16        -6.7381   -3.2203    3.7460 H         1 <0>         0.4180
     43 H17        -0.9781   -2.9795   -2.8408 H         1 <0>         0.0728
     44 H18        -2.4450   -2.8181   -1.8456 H         1 <0>         0.0668
     45 H19        -1.8772   -1.4434   -2.8234 H         1 <0>         0.0694
@<TRIPOS>BOND
     1    1    2 1
     2    1   27 1
     3    1   28 1
     4    1   29 1
     5    2    7 ar
     6    2    3 ar
     7    3    4 ar
     8    3   30 1
     9    4    5 ar
    10    4   26 1
    11    5    6 ar
    12    5   31 1
    13    6    7 ar
    14    6    8 1
    15    7   32 1
    16    8    9 1
    17    8   10 1
    18    9   33 1
    19    9   34 1
    20    9   35 1
    21   10   11 2
    22   10   12 2
    23   10   13 1
    24   13   18 ar
    25   13   14 ar
    26   14   15 ar
    27   14   36 1
    28   15   16 ar
    29   15   37 1
    30   16   25 1
    31   16   17 ar
    32   17   18 ar
    33   17   19 1
    34   18   38 1
    35   19   20 am
    36   19   39 1
    37   20   21 2
    38   20   22 1
    39   22   23 1
    40   22   40 1
    41   22   41 1
    42   23   24 2
    43   23   25 am
    44   25   42 1
    45   26   43 1
    46   26   44 1
    47   26   45 1
