@<TRIPOS>MOLECULE
ZINC09046159
   36    38     0     0     0
SMALL
USER_CHARGES

@<TRIPOS>ATOM
      1 C1         -0.0066    1.3819    0.2188 C.ar      1 <0>        -0.1093
      2 C2          1.1820    2.0844    0.2460 C.ar      1 <0>        -0.1187
      3 C3          2.3891    1.4068    0.2052 C.ar      1 <0>         0.0891
      4 C4          2.4072    0.0237    0.1371 C.ar      1 <0>        -0.1168
      5 C5          1.2210   -0.6828    0.1092 C.ar      1 <0>        -0.1271
      6 C6          0.0091   -0.0053    0.1505 C.ar      1 <0>         0.1170
      7 N1         -1.1934   -0.7188    0.1232 N.pl3     1 <0>        -0.5975
      8 C7         -1.1770   -2.0660    0.0569 C.2       1 <0>         0.3284
      9 C8         -2.3602   -2.7771    0.1419 C.2       1 <0>        -0.4120
     10 C9         -2.3691   -4.2487    0.2219 C.2       1 <0>         0.5899
     11 O1         -1.3296   -4.8810    0.2157 O.2       1 <0>        -0.5019
     12 N2         -3.5608   -4.8756    0.3027 N.am      1 <0>        -0.6594
     13 C10        -4.7133   -4.1912    0.3109 C.2       1 <0>         0.7129
     14 O2         -5.7531   -4.8160    0.3860 O.2       1 <0>        -0.5159
     15 N3         -4.7797   -2.8543    0.2412 N.am      1 <0>        -0.5151
     16 C11        -3.6667   -2.0962    0.1627 C.2       1 <0>         0.5836
     17 O3         -3.7399   -0.8830    0.1056 O.2       1 <0>        -0.5091
     18 C12        -6.0343   -2.2293    0.2562 C.ar      1 <0>         0.1400
     19 C13        -6.4877   -1.5527   -0.8682 C.ar      1 <0>        -0.0858
     20 C14        -7.7242   -0.9377   -0.8508 C.ar      1 <0>        -0.0802
     21 C15        -8.5110   -0.9955    0.2859 C.ar      1 <0>        -0.0793
     22 C16        -8.0613   -1.6687    1.4079 C.ar      1 <0>        -0.0799
     23 C17        -6.8282   -2.2906    1.3936 C.ar      1 <0>        -0.0838
     24 Br1       -10.2035   -0.1523    0.3062 Br        1 <0>        -0.0384
     25 F1          3.5507    2.0960    0.2315 F         1 <0>        -0.1328
     26 H1         -0.9477    1.9105    0.2551 H         1 <0>         0.1440
     27 H2          1.1702    3.1630    0.2988 H         1 <0>         0.1477
     28 H3          3.3496   -0.5027    0.1054 H         1 <0>         0.1482
     29 H4          1.2355   -1.7614    0.0557 H         1 <0>         0.1441
     30 H5         -2.0393   -0.2449    0.1521 H         1 <0>         0.4341
     31 H6         -0.2398   -2.5894   -0.0626 H         1 <0>         0.1860
     32 H7         -3.5842   -5.8439    0.3557 H         1 <0>         0.4382
     33 H8         -5.8738   -1.5070   -1.7555 H         1 <0>         0.1359
     34 H9         -8.0771   -0.4110   -1.7251 H         1 <0>         0.1434
     35 H10        -8.6770   -1.7117    2.2941 H         1 <0>         0.1436
     36 H11        -6.4799   -2.8204    2.2679 H         1 <0>         0.1367
@<TRIPOS>BOND
     1    1    6 ar
     2    1    2 ar
     3    1   26 1
     4    2    3 ar
     5    2   27 1
     6    3    4 ar
     7    3   25 1
     8    4    5 ar
     9    4   28 1
    10    5    6 ar
    11    5   29 1
    12    6    7 1
    13    7    8 1
    14    7   30 1
    15    8    9 2
    16    8   31 1
    17    9   16 1
    18    9   10 1
    19   10   11 2
    20   10   12 am
    21   12   13 am
    22   12   32 1
    23   13   14 2
    24   13   15 am
    25   15   16 am
    26   15   18 1
    27   16   17 2
    28   18   23 ar
    29   18   19 ar
    30   19   20 ar
    31   19   33 1
    32   20   21 ar
    33   20   34 1
    34   21   22 ar
    35   21   24 1
    36   22   23 ar
    37   22   35 1
    38   23   36 1
