@<TRIPOS>MOLECULE
ZINC39605539
   60    63     0     0     0
SMALL
USER_CHARGES

@<TRIPOS>ATOM
      1 C1          0.0473    1.8795    0.0242 C.ar      1 <0>        -0.0669
      2 C2          1.1714    2.6771   -0.0105 C.ar      1 <0>        -0.1520
      3 C3          2.4327    2.1021   -0.0072 C.ar      1 <0>         0.1177
      4 C4          2.5717    0.7235    0.0305 C.ar      1 <0>        -0.1478
      5 C5          1.4547   -0.0840    0.0650 C.ar      1 <0>        -0.0586
      6 C6          0.1813    0.4898    0.0628 C.ar      1 <0>        -0.0437
      7 C7         -1.0189   -0.3696    0.1006 C.2       1 <0>         0.0738
      8 C8         -1.0195   -1.7345    0.1454 C.2       1 <0>        -0.2002
      9 C9         -2.3562   -2.1445    0.1701 C.2       1 <0>        -0.0986
     10 C10        -3.1236   -1.0006    0.1390 C.2       1 <0>        -0.0845
     11 O1         -2.2913    0.0616    0.1025 O.3       1 <0>        -0.1535
     12 C11        -4.5874   -0.9463    0.1495 C.2       1 <0>         0.6393
     13 O2         -5.2344   -1.9766    0.1888 O.2       1 <0>        -0.5137
     14 N1         -5.2178    0.2445    0.1157 N.am      1 <0>        -0.6129
     15 C12        -4.6079    1.5938    0.0597 C.3       1 <0>         0.1112
     16 C13        -5.5137    2.3920   -0.9045 C.3       1 <0>        -0.1150
     17 H1         -5.6183    3.4215   -0.5622 H         1 <0>         0.1189
     18 C14        -6.8710    1.6707   -0.8552 C.3       1 <0>        -0.0731
     19 C15        -6.6783    0.4999    0.1196 C.3       1 <0>         0.1092
     20 C16        -7.9531    2.6152   -0.3408 C.3       1 <0>        -0.1339
     21 C17        -9.3035    1.8933   -0.3558 C.3       1 <0>        -0.0102
     22 N2         -9.6139    1.4603   -1.7235 N.4       1 <0>        -0.5046
     23 C18        -8.6188    0.4808   -2.1765 C.3       1 <0>        -0.0091
     24 C19        -7.2394    1.1430   -2.2386 C.3       1 <0>        -0.1472
     25 C20        -4.9500    2.3594   -2.3018 C.2       1 <0>         0.5141
     26 O3         -4.3053    1.4017   -2.6734 O.2       1 <0>        -0.5121
     27 N3         -5.1623    3.3946   -3.1383 N.am      1 <0>        -0.7288
     28 C21        -4.6143    3.3630   -4.4966 C.3       1 <0>         0.1191
     29 C22        -4.9974    4.6492   -5.2312 C.3       1 <0>        -0.1322
     30 C23        -4.4251    4.6162   -6.6498 C.3       1 <0>         0.0772
     31 O4         -4.7830    5.8176   -7.3359 O.3       1 <0>        -0.5750
     32 F1          3.5308    2.8885   -0.0414 F         1 <0>        -0.1307
     33 H2         -0.9349    2.3286    0.0261 H         1 <0>         0.1349
     34 H3          1.0690    3.7518   -0.0407 H         1 <0>         0.1433
     35 H4          3.5569    0.2809    0.0325 H         1 <0>         0.1478
     36 H5          1.5641   -1.1580    0.0937 H         1 <0>         0.1433
     37 H6         -0.1511   -2.3765    0.1589 H         1 <0>         0.1639
     38 H7         -2.7174   -3.1617    0.2062 H         1 <0>         0.1662
     39 H8         -4.6083    2.0523    1.0486 H         1 <0>         0.0921
     40 H9         -3.5927    1.5359   -0.3329 H         1 <0>         0.1081
     41 H10        -7.2192   -0.3791   -0.2311 H         1 <0>         0.0911
     42 H11        -7.0129    0.7802    1.1184 H         1 <0>         0.0887
     43 H12        -7.7151    2.9207    0.6781 H         1 <0>         0.1229
     44 H13        -8.0035    3.4948   -0.9826 H         1 <0>         0.0984
     45 H14        -9.2573    1.0231    0.2989 H         1 <0>         0.1335
     46 H15       -10.0814    2.5711   -0.0042 H         1 <0>         0.1408
     47 H16       -10.5307    1.0393   -1.7417 H         1 <0>         0.4346
     48 H17        -8.5888   -0.3558   -1.4785 H         1 <0>         0.1350
     49 H18        -8.8919    0.1173   -3.1671 H         1 <0>         0.1388
     50 H19        -7.2642    1.9697   -2.9486 H         1 <0>         0.0952
     51 H20        -6.4981    0.4105   -2.5579 H         1 <0>         0.1238
     52 H21        -5.6779    4.1606   -2.8411 H         1 <0>         0.4010
     53 H22        -3.5284    3.2817   -4.4485 H         1 <0>         0.0754
     54 H23        -5.0196    2.5043   -5.0320 H         1 <0>         0.0721
     55 H24        -6.0833    4.7305   -5.2793 H         1 <0>         0.0748
     56 H25        -4.5922    5.5079   -4.6958 H         1 <0>         0.0797
     57 H26        -3.3392    4.5349   -6.6017 H         1 <0>         0.0520
     58 H27        -4.8304    3.7576   -7.1851 H         1 <0>         0.0493
     59 H28        -4.4528    5.8654   -8.2435 H         1 <0>         0.3893
     60 H29        -9.6015    2.2597   -2.3391 H         1 <0>         0.4277
@<TRIPOS>BOND
     1    1    6 ar
     2    1    2 ar
     3    1   33 1
     4    2    3 ar
     5    2   34 1
     6    3    4 ar
     7    3   32 1
     8    4    5 ar
     9    4   35 1
    10    5    6 ar
    11    5   36 1
    12    6    7 1
    13    7   11 1
    14    7    8 2
    15    8    9 1
    16    8   37 1
    17    9   10 2
    18    9   38 1
    19   10   11 1
    20   10   12 1
    21   12   13 2
    22   12   14 am
    23   14   19 1
    24   14   15 1
    25   15   16 1
    26   15   39 1
    27   15   40 1
    28   16   17 1
    29   16   18 1
    30   16   25 1
    31   18   24 1
    32   18   19 1
    33   18   20 1
    34   19   41 1
    35   19   42 1
    36   20   21 1
    37   20   43 1
    38   20   44 1
    39   21   22 1
    40   21   45 1
    41   21   46 1
    42   22   23 1
    43   22   47 1
    44   22   60 1
    45   23   24 1
    46   23   48 1
    47   23   49 1
    48   24   50 1
    49   24   51 1
    50   25   26 2
    51   25   27 am
    52   27   28 1
    53   27   52 1
    54   28   29 1
    55   28   53 1
    56   28   54 1
    57   29   30 1
    58   29   55 1
    59   29   56 1
    60   30   31 1
    61   30   57 1
    62   30   58 1
    63   31   59 1
