@<TRIPOS>MOLECULE
ZINC33937301
   83    87     0     0     0
SMALL
USER_CHARGES

@<TRIPOS>ATOM
      1 C1         -4.9415   -1.5249   -0.6685 C.3       1 <0>        -0.1511
      2 C2         -3.4352   -1.2996   -0.8136 C.3       1 <0>        -0.1297
      3 C3         -2.7002   -2.0221    0.3173 C.3       1 <0>        -0.1448
      4 C4         -1.1902   -1.8727    0.1213 C.3       1 <0>         0.1294
      5 H1         -0.9358   -0.8152    0.0511 H         1 <0>         0.1578
      6 C5         -0.4684   -2.4863    1.2933 C.2       1 <0>         0.1460
      7 N1         -0.3019   -3.7651    1.5275 N.2       1 <0>        -0.2925
      8 N2          0.3648   -3.8855    2.6235 N.2       1 <0>        -0.0482
      9 N3          0.6279   -2.7166    3.0944 N.2       1 <0>        -0.0545
     10 N4          0.1354   -1.8274    2.2998 N.pl3     1 <0>        -0.2733
     11 C6          0.2153   -0.3738    2.4639 C.3       1 <0>         0.1031
     12 C7         -0.9888    0.1152    3.2713 C.3       1 <0>         0.0608
     13 H2         -1.0570   -0.4276    4.2141 H         1 <0>         0.0935
     14 C8         -0.8773    1.6381    3.5344 C.3       1 <0>        -0.1456
     15 C9         -2.3709    2.0123    3.7373 C.3       1 <0>        -0.1555
     16 C10        -3.0851    1.0482    2.7658 C.3       1 <0>         0.0507
     17 O1         -2.1976   -0.0491    2.5129 O.3       1 <0>        -0.3873
     18 N5         -0.7869   -2.5565   -1.1147 N.4       1 <0>        -0.3754
     19 C11         0.6656   -2.4284   -1.2936 C.3       1 <0>        -0.0203
     20 C12         1.0266   -0.9554   -1.4955 C.3       1 <0>        -0.1454
     21 C13         2.5202   -0.8340   -1.8042 C.3       1 <0>         0.0580
     22 N6          2.8884    0.5854   -1.8913 N.3       1 <0>        -0.5352
     23 C14         2.2682    1.2196   -3.0637 C.3       1 <0>         0.0117
     24 C15         2.6287    2.7075   -3.0827 C.3       1 <0>         0.0619
     25 O2          4.0519    2.8481   -3.0806 O.3       1 <0>        -0.3796
     26 C16         4.6886    2.2424   -1.9522 C.3       1 <0>         0.0619
     27 C17         4.3490    0.7499   -1.9218 C.3       1 <0>         0.0172
     28 C18        -1.1459   -3.9783   -1.0273 C.3       1 <0>         0.0382
     29 C19        -0.8638   -4.6497   -2.3466 C.2       1 <0>        -0.2690
     30 C20         0.3063   -5.3092   -2.5324 C.2       1 <0>         0.0579
     31 C21         0.5496   -5.9512   -3.8255 C.ar      1 <0>        -0.1453
     32 C22         1.7374   -6.6463   -4.0762 C.ar      1 <0>        -0.0544
     33 C23         1.9336   -7.2347   -5.2933 C.ar      1 <0>        -0.0999
     34 C24         0.9649   -7.1487   -6.2841 C.ar      1 <0>        -0.0447
     35 C25        -0.2125   -6.4688   -6.0594 C.ar      1 <0>        -0.1224
     36 C26        -0.4351   -5.8623   -4.8273 C.ar      1 <0>         0.1923
     37 N7         -1.6041   -5.1766   -4.5750 N.am      1 <0>        -0.6186
     38 H3         -2.2817   -5.1162   -5.2665 H         1 <0>         0.4238
     39 C27        -1.8209   -4.5947   -3.3824 C.2       1 <0>         0.5434
     40 O3         -2.8683   -4.0009   -3.1926 O.2       1 <0>        -0.5381
     41 C28        -1.2550   -6.3825   -7.1442 C.3       1 <0>        -0.1221
     42 C29         3.2133   -7.9835   -5.5631 C.3       1 <0>        -0.1208
     43 H4         -5.4651   -1.0102   -1.4741 H         1 <0>         0.0663
     44 H5         -5.1559   -2.5924   -0.7196 H         1 <0>         0.0621
     45 H6         -5.2768   -1.1326    0.2916 H         1 <0>         0.0616
     46 H7         -3.0999   -1.6919   -1.7737 H         1 <0>         0.0632
     47 H8         -3.2209   -0.2321   -0.7624 H         1 <0>         0.0770
     48 H9         -2.9873   -1.5859    1.2741 H         1 <0>         0.1315
     49 H10        -2.9653   -3.0793    0.3057 H         1 <0>         0.0981
     50 H11         1.1344   -0.1177    2.9909 H         1 <0>         0.1413
     51 H12         0.2135    0.1031    1.4838 H         1 <0>         0.1195
     52 H13        -0.2960    1.8398    4.4341 H         1 <0>         0.0977
     53 H14        -0.4562    2.1558    2.6725 H         1 <0>         0.0884
     54 H15        -2.6810    1.8269    4.7657 H         1 <0>         0.0843
     55 H16        -2.5523    3.0500    3.4573 H         1 <0>         0.0932
     56 H17        -4.0054    0.6805    3.2197 H         1 <0>         0.0778
     57 H18        -3.3120    1.5642    1.8329 H         1 <0>         0.0787
     58 H19         1.1756   -2.8095   -0.4089 H         1 <0>         0.1250
     59 H20         0.9760   -3.0016   -2.1672 H         1 <0>         0.1356
     60 H21         0.4496   -0.5506   -2.3270 H         1 <0>         0.0918
     61 H22         0.7966   -0.3972   -0.5879 H         1 <0>         0.0890
     62 H23         3.0952   -1.3105   -1.0102 H         1 <0>         0.0857
     63 H24         2.7360   -1.3243   -2.7535 H         1 <0>         0.0506
     64 H25         2.6371    0.7441   -3.9725 H         1 <0>         0.0492
     65 H26         1.1854    1.1081   -3.0076 H         1 <0>         0.0845
     66 H27         2.2186    3.1699   -3.9805 H         1 <0>         0.1021
     67 H28         2.2135    3.1938   -2.2000 H         1 <0>         0.0611
     68 H29         5.7683    2.3685   -2.0325 H         1 <0>         0.1044
     69 H30         4.3334    2.7153   -1.0366 H         1 <0>         0.0623
     70 H31         4.7851    0.2955   -1.0321 H         1 <0>         0.0902
     71 H32         4.7512    0.2669   -2.8123 H         1 <0>         0.0498
     72 H33        -0.5563   -4.4544   -0.2439 H         1 <0>         0.1689
     73 H34        -2.2060   -4.0715   -0.7915 H         1 <0>         0.1505
     74 H35         1.0427   -5.3595   -1.7440 H         1 <0>         0.1548
     75 H36         2.4961   -6.7172   -3.3109 H         1 <0>         0.1410
     76 H37         1.1359   -7.6193   -7.2410 H         1 <0>         0.1414
     77 H38        -1.9395   -7.2265   -7.0583 H         1 <0>         0.0825
     78 H39        -1.8117   -5.4512   -7.0399 H         1 <0>         0.0643
     79 H40        -0.7680   -6.4075   -8.1190 H         1 <0>         0.0846
     80 H41         3.0625   -9.0444   -5.3635 H         1 <0>         0.0788
     81 H42         3.5012   -7.8472   -6.6055 H         1 <0>         0.0742
     82 H43         4.0019   -7.6004   -4.9154 H         1 <0>         0.0716
     83 H44        -1.2608   -2.1377   -1.9008 H         1 <0>         0.4318
@<TRIPOS>BOND
     1    1    2 1
     2    1   43 1
     3    1   44 1
     4    1   45 1
     5    2    3 1
     6    2   46 1
     7    2   47 1
     8    3    4 1
     9    3   48 1
    10    3   49 1
    11    4    5 1
    12    4    6 1
    13    4   18 1
    14    6   10 1
    15    6    7 2
    16    7    8 1
    17    8    9 2
    18    9   10 1
    19   10   11 1
    20   11   12 1
    21   11   50 1
    22   11   51 1
    23   12   13 1
    24   12   17 1
    25   12   14 1
    26   14   15 1
    27   14   52 1
    28   14   53 1
    29   15   16 1
    30   15   54 1
    31   15   55 1
    32   16   17 1
    33   16   56 1
    34   16   57 1
    35   18   19 1
    36   18   28 1
    37   18   83 1
    38   19   20 1
    39   19   58 1
    40   19   59 1
    41   20   21 1
    42   20   60 1
    43   20   61 1
    44   21   22 1
    45   21   62 1
    46   21   63 1
    47   22   27 1
    48   22   23 1
    49   23   24 1
    50   23   64 1
    51   23   65 1
    52   24   25 1
    53   24   66 1
    54   24   67 1
    55   25   26 1
    56   26   27 1
    57   26   68 1
    58   26   69 1
    59   27   70 1
    60   27   71 1
    61   28   29 1
    62   28   72 1
    63   28   73 1
    64   29   39 1
    65   29   30 2
    66   30   31 1
    67   30   74 1
    68   31   36 ar
    69   31   32 ar
    70   32   33 ar
    71   32   75 1
    72   33   34 ar
    73   33   42 1
    74   34   35 ar
    75   34   76 1
    76   35   36 ar
    77   35   41 1
    78   36   37 1
    79   37   38 1
    80   37   39 am
    81   39   40 2
    82   41   77 1
    83   41   78 1
    84   41   79 1
    85   42   80 1
    86   42   81 1
    87   42   82 1
