@<TRIPOS>MOLECULE
ZINC63315932
   56    59     0     0     0
SMALL
USER_CHARGES

@<TRIPOS>ATOM
      1 C1         -2.9480    0.5656   -1.4554 C.3       1 <0>        -0.1732
      2 C2         -2.2551   -0.7646   -1.6022 C.2       1 <0>         0.5127
      3 O1         -2.6994   -1.5993   -2.3618 O.2       1 <0>        -0.5271
      4 N1         -1.1416   -1.0267   -0.8895 N.am      1 <0>        -0.6750
      5 C3         -0.5550   -2.2957   -0.9497 C.ar      1 <0>         0.1612
      6 C4          0.0432   -2.8396    0.1805 C.ar      1 <0>        -0.1464
      7 C5          0.6231   -4.0921    0.1221 C.ar      1 <0>        -0.0822
      8 C6          0.6105   -4.8082   -1.0594 C.ar      1 <0>        -0.1294
      9 C7          0.0140   -4.2700   -2.1933 C.ar      1 <0>         0.1436
     10 C8         -0.5749   -3.0142   -2.1360 C.ar      1 <0>        -0.1368
     11 N2          0.0024   -4.9943   -3.3881 N.am      1 <0>        -0.6308
     12 C9         -0.1185   -6.3363   -3.3615 C.2       1 <0>         0.5121
     13 O2         -0.1301   -6.9237   -2.2994 O.2       1 <0>        -0.4912
     14 C10        -0.2381   -7.1008   -4.6390 C.2       1 <0>         0.5184
     15 O3         -0.1050   -6.5307   -5.7020 O.2       1 <0>        -0.5015
     16 N3         -0.4939   -8.4238   -4.6112 N.am      1 <0>        -0.5879
     17 C11        -0.8201   -9.0961   -3.3457 C.3       1 <0>         0.0512
     18 C12        -2.1622   -9.8205   -3.5074 C.3       1 <0>         0.0955
     19 N4         -2.1204  -10.6166   -4.7421 N.am      1 <0>        -0.5936
     20 C13        -1.7942   -9.9443   -6.0076 C.3       1 <0>         0.0719
     21 C14        -0.4576   -9.2188   -5.8467 C.3       1 <0>         0.0906
     22 C15        -2.3762  -11.9396   -4.7143 C.2       1 <0>         0.5271
     23 O4         -2.6439  -12.4835   -3.6639 O.2       1 <0>        -0.4967
     24 C16        -2.3296  -12.7430   -5.9884 C.3       1 <0>         0.0662
     25 H1         -3.0486  -12.3492   -6.7069 H         1 <0>         0.1993
     26 C17        -0.9358  -12.7104   -6.5746 C.2       1 <0>         0.0190
     27 C18        -0.5116  -13.9944   -6.6042 C.ar      1 <0>        -0.1421
     28 C19         0.7380  -14.6185   -7.0551 C.ar      1 <0>        -0.0167
     29 C20         0.8733  -15.9606   -6.9578 C.ar      1 <0>        -0.1439
     30 C21        -0.1476  -16.7685   -6.4384 C.ar      1 <0>         0.0614
     31 C22        -1.3237  -16.2683   -6.0040 C.ar      1 <0>        -0.2074
     32 C23        -1.5742  -14.8695   -6.0596 C.ar      1 <0>         0.3386
     33 N5         -2.6166  -14.1540   -5.7073 N.pl3     1 <0>        -0.5559
     34 H2         -3.6914    0.5022   -0.6608 H         1 <0>         0.1005
     35 H3         -2.2141    1.3320   -1.2061 H         1 <0>         0.0854
     36 H4         -3.4396    0.8246   -2.3931 H         1 <0>         0.0994
     37 H5         -0.7469   -0.3357   -0.3349 H         1 <0>         0.4161
     38 H6          0.0550   -2.2823    1.1055 H         1 <0>         0.1317
     39 H7          1.0876   -4.5123    1.0019 H         1 <0>         0.1353
     40 H8          1.0651   -5.7869   -1.1019 H         1 <0>         0.1411
     41 H9         -1.0434   -2.5956   -3.0144 H         1 <0>         0.1459
     42 H10         0.0813   -4.5311   -4.2368 H         1 <0>         0.4254
     43 H11        -0.0410   -9.8190   -3.1041 H         1 <0>         0.0813
     44 H12        -0.8971   -8.3571   -2.5481 H         1 <0>         0.1651
     45 H13        -2.3284  -10.4778   -2.6539 H         1 <0>         0.1159
     46 H14        -2.9676   -9.0888   -3.5711 H         1 <0>         0.0897
     47 H15        -1.7172  -10.6832   -6.8052 H         1 <0>         0.0966
     48 H16        -2.5733   -9.2213   -6.2492 H         1 <0>         0.1017
     49 H17        -0.2951   -8.5608   -6.7004 H         1 <0>         0.1213
     50 H18         0.3480   -9.9506   -5.7872 H         1 <0>         0.0814
     51 H19        -0.3897  -11.8384   -6.9030 H         1 <0>         0.2141
     52 H20         1.5374  -14.0150   -7.4589 H         1 <0>         0.1674
     53 H21         1.7918  -16.4220   -7.2893 H         1 <0>         0.1622
     54 H22         0.0133  -17.8351   -6.3837 H         1 <0>         0.1652
     55 H23        -2.0785  -16.9340   -5.6121 H         1 <0>         0.1650
     56 H24        -3.4386  -14.4993   -5.3250 H         1 <0>         0.4616
@<TRIPOS>BOND
     1    1    2 1
     2    1   34 1
     3    1   35 1
     4    1   36 1
     5    2    3 2
     6    2    4 am
     7    4    5 1
     8    4   37 1
     9    5   10 ar
    10    5    6 ar
    11    6    7 ar
    12    6   38 1
    13    7    8 ar
    14    7   39 1
    15    8    9 ar
    16    8   40 1
    17    9   10 ar
    18    9   11 1
    19   10   41 1
    20   11   12 am
    21   11   42 1
    22   12   13 2
    23   12   14 1
    24   14   15 2
    25   14   16 am
    26   16   21 1
    27   16   17 1
    28   17   18 1
    29   17   43 1
    30   17   44 1
    31   18   19 1
    32   18   45 1
    33   18   46 1
    34   19   20 1
    35   19   22 am
    36   20   21 1
    37   20   47 1
    38   20   48 1
    39   21   49 1
    40   21   50 1
    41   22   23 2
    42   22   24 1
    43   24   25 1
    44   24   33 1
    45   24   26 1
    46   26   27 2
    47   26   51 1
    48   27   32 ar
    49   27   28 ar
    50   28   29 ar
    51   28   52 1
    52   29   30 ar
    53   29   53 1
    54   30   31 ar
    55   30   54 1
    56   31   32 ar
    57   31   55 1
    58   32   33 2
    59   33   56 1
