@<TRIPOS>MOLECULE
ZINC08686761
   67    69     0     0     0
SMALL
USER_CHARGES

@<TRIPOS>ATOM
      1 C1         -0.5485    1.7534    0.6730 C.3       1 <0>        -0.0479
      2 N1         -0.4081    0.2969    0.5430 N.4       1 <0>        -0.3869
      3 C2          0.3084   -0.2322    1.7112 C.3       1 <0>        -0.0549
      4 C3         -1.7397   -0.3184    0.4654 C.3       1 <0>        -0.0114
      5 C4         -1.5938   -1.8191    0.2053 C.3       1 <0>        -0.1610
      6 C5         -2.9808   -2.4599    0.1244 C.3       1 <0>         0.1151
      7 N2         -2.8410   -3.8968   -0.1246 N.pl3     1 <0>        -1.1166
      8 S1         -4.1331   -4.9067    0.1060 S.o2      1 <0>         2.6976
      9 O1         -3.6942   -6.2132   -0.2399 O.2       1 <0>        -0.9281
     10 O2         -4.6677   -4.5964    1.3855 O.2       1 <0>        -0.9326
     11 C6         -5.3616   -4.4589   -1.0751 C.ar      1 <0>        -0.6616
     12 C7         -6.3078   -3.5012   -0.7572 C.ar      1 <0>         0.0142
     13 C8         -7.2718   -3.1479   -1.6802 C.ar      1 <0>        -0.0714
     14 C9         -7.2908   -3.7557   -2.9299 C.ar      1 <0>        -0.0355
     15 C10        -6.3389   -4.7171   -3.2458 C.ar      1 <0>        -0.0163
     16 C11        -5.3741   -5.0615   -2.3196 C.ar      1 <0>         0.0407
     17 N3         -6.3555   -5.3676   -4.5755 N.pl3     1 <0>         0.0269
     18 O3         -5.5268   -6.2041   -4.8496 O.2       1 <0>        -0.1460
     19 O4         -7.1977   -5.0622   -5.3873 O.3       1 <0>        -0.1217
     20 S2         -8.5197   -3.3083   -4.1108 S.3       1 <0>         0.1622
     21 C12        -9.6700   -4.6418   -4.0549 C.2       1 <0>         0.1368
     22 N4         -9.6463   -5.6589   -3.2253 N.2       1 <0>        -0.2904
     23 N5        -10.6366   -6.4419   -3.4663 N.2       1 <0>        -0.2762
     24 C13       -11.3453   -5.9753   -4.4554 C.2       1 <0>         0.2124
     25 N6        -10.7583   -4.8097   -4.8625 N.pl3     1 <0>        -0.4481
     26 C14       -11.2030   -3.9255   -5.9426 C.3       1 <0>         0.1316
     27 C15       -10.5582   -4.3499   -7.2368 C.2       1 <0>        -0.1918
     28 C16       -11.3016   -4.6210   -8.2809 C.2       1 <0>        -0.1467
     29 C17       -12.5855   -6.6018   -5.0389 C.3       1 <0>         0.0031
     30 C18       -13.6595   -6.7122   -3.9548 C.3       1 <0>        -0.1088
     31 C19       -14.9186   -7.3482   -4.5471 C.3       1 <0>        -0.1177
     32 C20       -14.5839   -8.7438   -5.0774 C.3       1 <0>        -0.1239
     33 C21       -13.5099   -8.6334   -6.1616 C.3       1 <0>        -0.1174
     34 C22       -12.2508   -7.9973   -5.5692 C.3       1 <0>        -0.1074
     35 H1          0.4396    2.2099    0.7306 H         1 <0>         0.1261
     36 H2         -1.0801    2.1459   -0.1938 H         1 <0>         0.1242
     37 H3         -1.1091    1.9850    1.5786 H         1 <0>         0.1236
     38 H4          0.4126   -1.3129    1.6148 H         1 <0>         0.1250
     39 H5          1.2965    0.2244    1.7688 H         1 <0>         0.1263
     40 H6         -0.2522   -0.0005    2.6169 H         1 <0>         0.1247
     41 H7         -2.2675   -0.1624    1.4063 H         1 <0>         0.1366
     42 H8         -2.3041    0.1381   -0.3478 H         1 <0>         0.1355
     43 H9         -1.0660   -1.9751   -0.7356 H         1 <0>         0.0982
     44 H10        -1.0295   -2.2756    1.0185 H         1 <0>         0.1012
     45 H11        -3.5085   -2.3039    1.0653 H         1 <0>         0.0960
     46 H12        -3.5451   -2.0034   -0.6887 H         1 <0>         0.0776
     47 H13        -1.9917   -4.2567   -0.4246 H         1 <0>         0.4265
     48 H14        -6.2926   -3.0296    0.2143 H         1 <0>         0.1677
     49 H15        -8.0105   -2.4004   -1.4312 H         1 <0>         0.1702
     50 H16        -4.6309   -5.8054   -2.5662 H         1 <0>         0.1760
     51 H17       -12.2869   -3.9869   -6.0394 H         1 <0>         0.1071
     52 H18       -10.9163   -2.8992   -5.7133 H         1 <0>         0.1050
     53 H19        -9.4833   -4.4307   -7.3036 H         1 <0>         0.1267
     54 H20       -10.8395   -4.9251   -9.2085 H         1 <0>         0.1119
     55 H21       -12.3765   -4.5402   -8.2141 H         1 <0>         0.1022
     56 H22       -12.9559   -5.9820   -5.8555 H         1 <0>         0.0872
     57 H23       -13.2890   -7.3320   -3.1382 H         1 <0>         0.0773
     58 H24       -13.8979   -5.7180   -3.5770 H         1 <0>         0.0618
     59 H25       -15.6837   -7.4269   -3.7748 H         1 <0>         0.0690
     60 H26       -15.2890   -6.7285   -5.3637 H         1 <0>         0.0633
     61 H27       -14.2135   -9.3636   -4.2609 H         1 <0>         0.0657
     62 H28       -15.4809   -9.1969   -5.4995 H         1 <0>         0.0661
     63 H29       -13.2715   -9.6276   -6.5394 H         1 <0>         0.0694
     64 H30       -13.8803   -8.0136   -6.9781 H         1 <0>         0.0636
     65 H31       -11.4857   -7.9187   -6.3416 H         1 <0>         0.0639
     66 H32       -11.8804   -8.6171   -4.7527 H         1 <0>         0.0763
     67 H33         0.1109    0.0825   -0.2953 H         1 <0>         0.4279
@<TRIPOS>BOND
     1    1    2 1
     2    1   35 1
     3    1   36 1
     4    1   37 1
     5    2    3 1
     6    2    4 1
     7    2   67 1
     8    3   38 1
     9    3   39 1
    10    3   40 1
    11    4    5 1
    12    4   41 1
    13    4   42 1
    14    5    6 1
    15    5   43 1
    16    5   44 1
    17    6    7 1
    18    6   45 1
    19    6   46 1
    20    7    8 1
    21    7   47 1
    22    8    9 2
    23    8   10 2
    24    8   11 1
    25   11   16 ar
    26   11   12 ar
    27   12   13 ar
    28   12   48 1
    29   13   14 ar
    30   13   49 1
    31   14   15 ar
    32   14   20 1
    33   15   16 ar
    34   15   17 1
    35   16   50 1
    36   17   18 2
    37   17   19 1
    38   20   21 1
    39   21   25 1
    40   21   22 2
    41   22   23 1
    42   23   24 2
    43   24   25 1
    44   24   29 1
    45   25   26 1
    46   26   27 1
    47   26   51 1
    48   26   52 1
    49   27   28 2
    50   27   53 1
    51   28   54 1
    52   28   55 1
    53   29   34 1
    54   29   30 1
    55   29   56 1
    56   30   31 1
    57   30   57 1
    58   30   58 1
    59   31   32 1
    60   31   59 1
    61   31   60 1
    62   32   33 1
    63   32   61 1
    64   32   62 1
    65   33   34 1
    66   33   63 1
    67   33   64 1
    68   34   65 1
    69   34   66 1
