@<TRIPOS>MOLECULE
ZINC39634838
   78    81     0     0     0
SMALL
USER_CHARGES

@<TRIPOS>ATOM
      1 C1         -0.1907    3.5962   -0.5873 C.3       1 <0>        -0.0903
      2 C2         -0.8606    2.2551   -0.4337 C.2       1 <0>         0.0774
      3 C3         -2.1825    2.0221   -0.5084 C.2       1 <0>        -0.2581
      4 C4         -2.3956    0.6352   -0.3098 C.2       1 <0>         0.1607
      5 N1         -1.2238    0.0732   -0.1237 N.2       1 <0>        -0.2485
      6 O1         -0.2394    1.0879   -0.2048 O.3       1 <0>        -0.0632
      7 C5         -3.7033   -0.0550   -0.3111 C.2       1 <0>         0.1797
      8 C6         -3.9171   -1.4114   -0.1117 C.2       1 <0>        -0.2532
      9 C7         -5.3142   -1.6335   -0.1953 C.2       1 <0>         0.1362
     10 N2         -5.8926   -0.4932   -0.4277 N.2       1 <0>        -0.2775
     11 O2         -4.9038    0.5157   -0.4997 O.3       1 <0>        -0.0488
     12 C8         -6.0088   -2.9621   -0.0421 C.3       1 <0>        -0.0929
     13 C9         -2.8844   -2.4306    0.1396 C.2       1 <0>         0.6314
     14 O3         -2.5460   -2.6852    1.2798 O.2       1 <0>        -0.5019
     15 N3         -2.3141   -3.0812   -0.8938 N.am      1 <0>        -0.6082
     16 C10        -2.5874   -2.9057   -2.3397 C.3       1 <0>         0.1153
     17 C11        -1.2011   -3.0082   -3.0142 C.3       1 <0>        -0.1100
     18 H1         -1.2802   -3.5330   -3.9663 H         1 <0>         0.1210
     19 C12        -0.3430   -3.8168   -2.0268 C.3       1 <0>        -0.0730
     20 C13        -1.2672   -4.1296   -0.8411 C.3       1 <0>         0.1074
     21 C14         0.8460   -2.9850   -1.5558 C.3       1 <0>        -0.1460
     22 C15         1.7150   -3.8296   -0.6197 C.3       1 <0>        -0.0104
     23 N4          2.1804   -5.0274   -1.3293 N.4       1 <0>        -0.5044
     24 C16         1.0350   -5.8682   -1.6976 C.3       1 <0>        -0.0122
     25 C17         0.1371   -5.1097   -2.6791 C.3       1 <0>        -0.1323
     26 C18        -0.6149   -1.6352   -3.2201 C.2       1 <0>         0.5198
     27 O4         -0.9625   -0.7149   -2.5108 O.2       1 <0>        -0.4846
     28 N5          0.2955   -1.4301   -4.1925 N.am      1 <0>        -0.7347
     29 C19         0.8654   -0.0954   -4.3926 C.3       1 <0>         0.0961
     30 C20         1.8650   -0.1359   -5.5502 C.3       1 <0>        -0.0307
     31 N6          2.5207    1.1724   -5.6770 N.4       1 <0>        -0.3787
     32 C21         3.3448    1.4245   -4.4874 C.3       1 <0>         0.0173
     33 C22         4.7139    0.7653   -4.6663 C.3       1 <0>        -0.1856
     34 C23         3.5252    2.9325   -4.3021 C.3       1 <0>        -0.2075
     35 C24         3.3730    1.1791   -6.8735 C.3       1 <0>         0.0174
     36 C25         2.5417    0.7790   -8.0940 C.3       1 <0>        -0.1866
     37 C26         3.9454    2.5823   -7.0841 C.3       1 <0>        -0.1944
     38 H2          0.8879    3.4777   -0.4832 H         1 <0>         0.0839
     39 H3         -0.4179    4.0053   -1.5717 H         1 <0>         0.0965
     40 H4         -0.5573    4.2757    0.1821 H         1 <0>         0.1037
     41 H5         -2.9482    2.7624   -0.6876 H         1 <0>         0.1681
     42 H6         -6.2625   -3.1207    1.0060 H         1 <0>         0.1033
     43 H7         -6.9194   -2.9672   -0.6412 H         1 <0>         0.0975
     44 H8         -5.3469   -3.7593   -0.3804 H         1 <0>         0.0857
     45 H9         -3.2452   -3.6963   -2.7008 H         1 <0>         0.0956
     46 H10        -3.0297   -1.9272   -2.5268 H         1 <0>         0.0932
     47 H11        -0.7151   -4.0691    0.0968 H         1 <0>         0.0923
     48 H12        -1.7120   -5.1178   -0.9587 H         1 <0>         0.0903
     49 H13         1.4361   -2.6732   -2.4176 H         1 <0>         0.0879
     50 H14         0.4861   -2.1049   -1.0229 H         1 <0>         0.1295
     51 H15         2.5744   -3.2433   -0.2945 H         1 <0>         0.1382
     52 H16         1.1289   -4.1274    0.2497 H         1 <0>         0.1373
     53 H17         2.6753   -4.7511   -2.1641 H         1 <0>         0.4238
     54 H18         1.3932   -6.7845   -2.1670 H         1 <0>         0.1430
     55 H19         0.4652   -6.1178   -0.8026 H         1 <0>         0.1359
     56 H20        -0.7226   -5.7277   -2.9379 H         1 <0>         0.1246
     57 H21         0.7015   -4.8743   -3.5813 H         1 <0>         0.0949
     58 H22         0.5735   -2.1662   -4.7598 H         1 <0>         0.4048
     59 H23         0.0672    0.6091   -4.6264 H         1 <0>         0.0921
     60 H24         1.3754    0.2221   -3.4831 H         1 <0>         0.0899
     61 H25         2.6161   -0.9014   -5.3550 H         1 <0>         0.1325
     62 H26         1.3395   -0.3703   -6.4760 H         1 <0>         0.1439
     63 H27         2.8525    1.0069   -3.6092 H         1 <0>         0.1351
     64 H28         5.2438    1.2458   -5.4887 H         1 <0>         0.0911
     65 H29         5.2921    0.8738   -3.7487 H         1 <0>         0.1053
     66 H30         4.5810   -0.2934   -4.8890 H         1 <0>         0.0743
     67 H31         2.5533    3.3969   -4.1352 H         1 <0>         0.0826
     68 H32         4.1691    3.1185   -3.4425 H         1 <0>         0.1074
     69 H33         3.9817    3.3564   -5.1965 H         1 <0>         0.1026
     70 H34         4.1898    0.4695   -6.7417 H         1 <0>         0.1440
     71 H35         1.7249    1.4886   -8.2258 H         1 <0>         0.0832
     72 H36         3.1741    0.7839   -8.9818 H         1 <0>         0.1098
     73 H37         2.1339   -0.2207   -7.9440 H         1 <0>         0.0793
     74 H38         3.1420    3.3160   -7.0190 H         1 <0>         0.0845
     75 H39         4.6902    2.7899   -6.3157 H         1 <0>         0.0961
     76 H40         4.4120    2.6406   -8.0674 H         1 <0>         0.1087
     77 H41         2.8017   -5.5510   -0.7311 H         1 <0>         0.4373
     78 H42         1.8197    1.8934   -5.7594 H         1 <0>         0.4244
@<TRIPOS>BOND
     1    1    2 1
     2    1   38 1
     3    1   39 1
     4    1   40 1
     5    2    6 1
     6    2    3 2
     7    3    4 1
     8    3   41 1
     9    4    5 2
    10    4    7 1
    11    5    6 1
    12    7   11 1
    13    7    8 2
    14    8    9 1
    15    8   13 1
    16    9   10 2
    17    9   12 1
    18   10   11 1
    19   12   42 1
    20   12   43 1
    21   12   44 1
    22   13   14 2
    23   13   15 am
    24   15   20 1
    25   15   16 1
    26   16   17 1
    27   16   45 1
    28   16   46 1
    29   17   18 1
    30   17   19 1
    31   17   26 1
    32   19   25 1
    33   19   20 1
    34   19   21 1
    35   20   47 1
    36   20   48 1
    37   21   22 1
    38   21   49 1
    39   21   50 1
    40   22   23 1
    41   22   51 1
    42   22   52 1
    43   23   24 1
    44   23   53 1
    45   23   77 1
    46   24   25 1
    47   24   54 1
    48   24   55 1
    49   25   56 1
    50   25   57 1
    51   26   27 2
    52   26   28 am
    53   28   29 1
    54   28   58 1
    55   29   30 1
    56   29   59 1
    57   29   60 1
    58   30   31 1
    59   30   61 1
    60   30   62 1
    61   31   32 1
    62   31   35 1
    63   31   78 1
    64   32   33 1
    65   32   34 1
    66   32   63 1
    67   33   64 1
    68   33   65 1
    69   33   66 1
    70   34   67 1
    71   34   68 1
    72   34   69 1
    73   35   36 1
    74   35   37 1
    75   35   70 1
    76   36   71 1
    77   36   72 1
    78   36   73 1
    79   37   74 1
    80   37   75 1
    81   37   76 1
