@<TRIPOS>MOLECULE
ZINC13727764
   67    69     0     0     0
SMALL
USER_CHARGES
N-[(Z)-1-(3-dimethylaminopropylcarbamoyl)-2-[1-(dimethylsulfamoyl)indol-3-yl]vinyl]benzamide
@<TRIPOS>ATOM
      1 C1         -8.8495    2.1279    1.5109 C.3       1 <0>        -0.0481
      2 C2         -9.5568    0.3130    2.9492 C.3       1 <0>        -0.0425
      3 C3         -7.3169    0.3266    2.0297 C.3       1 <0>        -0.0015
      4 C4         -6.0791    1.2039    1.8324 C.3       1 <0>        -0.1652
      5 C5         -4.9221    0.3452    1.3178 C.3       1 <0>         0.1264
      6 N1         -3.7368    1.1853    1.1289 N.am      1 <0>        -0.7204
      7 C6         -2.5893    0.6402    0.6788 C.2       1 <0>         0.5763
      8 O1         -2.5377   -0.5503    0.4292 O.2       1 <0>        -0.5304
      9 C7         -1.4049    1.4797    0.4901 C.2       1 <0>         0.0189
     10 C8         -0.2491    0.9307    0.0367 C.2       1 <0>         0.0289
     11 C9          0.8975    1.7886   -0.2724 C.2       1 <0>        -0.1235
     12 C10         0.8806    3.1421   -0.4516 C.2       1 <0>         0.0798
     13 N2          2.1369    3.5835   -0.7227 N.pl3     1 <0>        -0.8290
     14 C11         3.0257    2.5285   -0.7307 C.ar      1 <0>         0.0964
     15 C12         2.2986    1.3614   -0.4450 C.ar      1 <0>        -0.0711
     16 C13         2.9465    0.1300   -0.3947 C.ar      1 <0>        -0.0719
     17 C14         4.3052    0.0644   -0.6149 C.ar      1 <0>        -0.1212
     18 C15         5.0259    1.2169   -0.8914 C.ar      1 <0>        -0.0831
     19 C16         4.3965    2.4415   -0.9500 C.ar      1 <0>        -0.1237
     20 S1          2.5434    5.1642   -1.0033 S.o2      1 <0>         2.7620
     21 O2          1.3422    5.9166   -0.9016 O.2       1 <0>        -0.9385
     22 O3          3.6843    5.4385   -0.2020 O.2       1 <0>        -0.9377
     23 N3          3.0362    5.2704   -2.5807 N.pl3     1 <0>        -0.9991
     24 C17         2.0460    5.4321   -3.6482 C.3       1 <0>         0.0859
     25 C18         4.4624    5.2026   -2.9087 C.3       1 <0>         0.0718
     26 N4         -1.4643    2.8509    0.7777 N.am      1 <0>        -0.6804
     27 C19        -2.3619    3.6335    0.1465 C.2       1 <0>         0.5531
     28 O4         -3.1805    3.1372   -0.6031 O.2       1 <0>        -0.5133
     29 C20        -2.3512    5.0953    0.3656 C.ar      1 <0>        -0.1518
     30 C21        -1.3590    5.6785    1.1557 C.ar      1 <0>        -0.0788
     31 C22        -1.3521    7.0439    1.3522 C.ar      1 <0>        -0.1137
     32 C23        -2.3314    7.8338    0.7766 C.ar      1 <0>        -0.0813
     33 C24        -3.3209    7.2615   -0.0029 C.ar      1 <0>        -0.1266
     34 C25        -3.3365    5.8980   -0.2118 C.ar      1 <0>        -0.0568
     35 H1         -9.1764    1.6026    0.6135 H         1 <0>         0.1248
     36 H2         -9.6730    2.7250    1.9027 H         1 <0>         0.1235
     37 H3         -8.0121    2.7809    1.2650 H         1 <0>         0.1219
     38 H4         -9.2335   -0.3534    3.7488 H         1 <0>         0.1223
     39 H5        -10.3653    0.9486    3.3104 H         1 <0>         0.1233
     40 H6         -9.9093   -0.2780    2.1039 H         1 <0>         0.1240
     41 H7         -7.5961   -0.1269    1.0786 H         1 <0>         0.1363
     42 H8         -7.0954   -0.4567    2.7546 H         1 <0>         0.1342
     43 H9         -5.7999    1.6575    2.7835 H         1 <0>         0.0923
     44 H10        -6.3007    1.9872    1.1075 H         1 <0>         0.0958
     45 H11        -5.2013   -0.1083    0.3667 H         1 <0>         0.0792
     46 H12        -4.7005   -0.4381    2.0427 H         1 <0>         0.0787
     47 H13        -3.7779    2.1338    1.3278 H         1 <0>         0.4010
     48 H14        -0.1763   -0.1381   -0.1003 H         1 <0>         0.1607
     49 H15         0.0021    3.7670   -0.3879 H         1 <0>         0.1905
     50 H16         2.3876   -0.7689   -0.1800 H         1 <0>         0.1334
     51 H17         4.8114   -0.8887   -0.5716 H         1 <0>         0.1357
     52 H18         6.0905    1.1540   -1.0620 H         1 <0>         0.1390
     53 H19         4.9671    3.3327   -1.1657 H         1 <0>         0.1301
     54 H20         1.5453    6.3939   -3.5367 H         1 <0>         0.0733
     55 H21         2.5456    5.3926   -4.6162 H         1 <0>         0.0914
     56 H22         1.3104    4.6301   -3.5860 H         1 <0>         0.0607
     57 H23         4.7468    4.1645   -3.0804 H         1 <0>         0.0640
     58 H24         4.6564    5.7861   -3.8086 H         1 <0>         0.0900
     59 H25         5.0452    5.6068   -2.0809 H         1 <0>         0.0873
     60 H26        -0.8594    3.2362    1.4308 H         1 <0>         0.4122
     61 H27        -0.5962    5.0626    1.6086 H         1 <0>         0.1195
     62 H28        -0.5827    7.4969    1.9599 H         1 <0>         0.1323
     63 H29        -2.3235    8.9019    0.9367 H         1 <0>         0.1318
     64 H30        -4.0826    7.8837   -0.4491 H         1 <0>         0.1327
     65 H31        -4.1094    5.4525   -0.8205 H         1 <0>         0.1351
     66 N5         -8.4185    1.1656    2.5467 N.4       1 <0>        -0.3977
     67 H32        -8.0849    1.6856    3.3669 H         1 <0>         0.4309
@<TRIPOS>BOND
     1    1   35 1
     2    1   36 1
     3    1   37 1
     4    1   66 1
     5    2   38 1
     6    2   39 1
     7    2   40 1
     8    2   66 1
     9    3    4 1
    10    3   41 1
    11    3   42 1
    12    3   66 1
    13    4    5 1
    14    4   43 1
    15    4   44 1
    16    5    6 1
    17    5   45 1
    18    5   46 1
    19    6    7 am
    20    6   47 1
    21    7    8 2
    22    7    9 1
    23    9   10 2
    24    9   26 1
    25   10   11 1
    26   10   48 1
    27   11   15 1
    28   11   12 2
    29   12   13 1
    30   12   49 1
    31   13   14 1
    32   13   20 1
    33   14   19 ar
    34   14   15 ar
    35   15   16 ar
    36   16   17 ar
    37   16   50 1
    38   17   18 ar
    39   17   51 1
    40   18   19 ar
    41   18   52 1
    42   19   53 1
    43   20   21 2
    44   20   22 2
    45   20   23 1
    46   23   24 1
    47   23   25 1
    48   24   54 1
    49   24   55 1
    50   24   56 1
    51   25   57 1
    52   25   58 1
    53   25   59 1
    54   26   27 am
    55   26   60 1
    56   27   28 2
    57   27   29 1
    58   29   34 ar
    59   29   30 ar
    60   30   31 ar
    61   30   61 1
    62   31   32 ar
    63   31   62 1
    64   32   33 ar
    65   32   63 1
    66   33   34 ar
    67   33   64 1
    68   34   65 1
    69   66   67 1
