@<TRIPOS>MOLECULE
ZINC13550363
   48    51     0     0     0
SMALL
USER_CHARGES
(5Z)-1-cyclohexyl-5-[(5R)-5-phenylpyrazolidin-3-ylidene]hexahydropyrimidine-2,4,6-trione
@<TRIPOS>ATOM
      1 C1         -0.4382   -9.8831   -6.9638 C.ar      1 <0>        -0.1116
      2 C2         -1.4349  -10.0344   -6.0180 C.ar      1 <0>        -0.1203
      3 C3         -1.7813   -8.9730   -5.2029 C.ar      1 <0>        -0.1069
      4 C4         -1.1306   -7.7604   -5.3334 C.ar      1 <0>        -0.0894
      5 C5         -0.1375   -7.6075   -6.2827 C.ar      1 <0>        -0.0880
      6 C6          0.2115   -8.6700   -7.0952 C.ar      1 <0>        -0.1226
      7 C7         -1.5082   -6.6032   -4.4448 C.3       1 <0>         0.0846
      8 H1         -2.5109   -6.8483   -4.0646 H         1 <0>         0.0910
      9 C8         -0.4207   -6.3574   -3.3686 C.3       1 <0>        -0.0977
     10 C9         -0.3993   -4.8423   -3.2761 C.2       1 <0>         0.3596
     11 C10         0.1828   -4.0971   -2.2675 C.2       1 <0>        -0.4204
     12 C11         0.8649   -4.7413   -1.1309 C.2       1 <0>         0.5922
     13 O1          0.9337   -5.9532   -1.0490 O.2       1 <0>        -0.5175
     14 N1          1.4106   -3.9509   -0.1837 N.am      1 <0>        -0.6795
     15 C12         1.3461   -2.6145   -0.2640 C.2       1 <0>         0.7126
     16 O2          1.8620   -1.9593    0.6201 O.2       1 <0>        -0.5336
     17 N2          0.7381   -1.9623   -1.2648 N.am      1 <0>        -0.5579
     18 C13         0.1488   -2.6238   -2.2822 C.2       1 <0>         0.5870
     19 O3         -0.3963   -2.0204   -3.1872 O.2       1 <0>        -0.5369
     20 C14         0.7182   -0.4975   -1.2568 C.3       1 <0>         0.1449
     21 C15         0.0021   -0.0041    0.0020 C.3       1 <0>        -0.1359
     22 C16        -0.0187    1.5258    0.0104 C.3       1 <0>        -0.1136
     23 C17         1.4167    2.0553   -0.0004 C.3       1 <0>        -0.1229
     24 C18         2.1328    1.5619   -1.2592 C.3       1 <0>        -0.1136
     25 C19         2.1536    0.0321   -1.2676 C.3       1 <0>        -0.1367
     26 N3         -1.0422   -4.3525   -4.3526 N.pl3     1 <0>        -0.5095
     27 N4         -1.4833   -5.3275   -5.1974 N.3       1 <0>        -0.4443
     28 H2         -0.1674  -10.7125   -7.6003 H         1 <0>         0.1235
     29 H3         -1.9428  -10.9820   -5.9156 H         1 <0>         0.1250
     30 H4         -2.5600   -9.0912   -4.4640 H         1 <0>         0.1231
     31 H5          0.3678   -6.6588   -6.3876 H         1 <0>         0.1288
     32 H6          0.9900   -8.5517   -7.8343 H         1 <0>         0.1240
     33 H7         -0.7204   -6.8412   -2.4273 H         1 <0>         0.1268
     34 H8          0.5354   -6.7806   -3.7101 H         1 <0>         0.1265
     35 H9          1.9231   -4.4005    0.6795 H         1 <0>         0.4614
     36 H10         0.1796   -0.1756   -2.1603 H         1 <0>         0.1120
     37 H11        -1.0299   -0.3849    0.0098 H         1 <0>         0.0608
     38 H12         0.5341   -0.3685    0.8932 H         1 <0>         0.0922
     39 H13        -0.5507    1.8901   -0.8808 H         1 <0>         0.0628
     40 H14        -0.5336    1.8806    0.9154 H         1 <0>         0.0680
     41 H15         1.4018    3.1552    0.0057 H         1 <0>         0.0643
     42 H16         1.9487    1.6909    0.8908 H         1 <0>         0.0669
     43 H17         1.6007    1.9263   -2.1503 H         1 <0>         0.0628
     44 H18         3.1648    1.9427   -1.2671 H         1 <0>         0.0681
     45 H19         2.6856   -0.3323   -0.3764 H         1 <0>         0.0929
     46 H20         2.6685   -0.3227   -2.1726 H         1 <0>         0.0614
     47 H21        -1.2278   -3.2944   -4.5892 H         1 <0>         0.4780
     48 H22        -2.3976   -5.1043   -5.5611 H         1 <0>         0.3579
@<TRIPOS>BOND
     1    1    6 ar
     2    1    2 ar
     3    1   28 1
     4    2    3 ar
     5    2   29 1
     6    3    4 ar
     7    3   30 1
     8    4    5 ar
     9    4    7 1
    10    5    6 ar
    11    5   31 1
    12    6   32 1
    13    7    8 1
    14    7   27 1
    15    7    9 1
    16    9   10 1
    17    9   33 1
    18    9   34 1
    19   10   11 2
    20   10   26 1
    21   11   18 1
    22   11   12 1
    23   12   13 2
    24   12   14 am
    25   14   15 am
    26   14   35 1
    27   15   16 2
    28   15   17 am
    29   17   18 am
    30   17   20 1
    31   18   19 2
    32   20   25 1
    33   20   21 1
    34   20   36 1
    35   21   22 1
    36   21   37 1
    37   21   38 1
    38   22   23 1
    39   22   39 1
    40   22   40 1
    41   23   24 1
    42   23   41 1
    43   23   42 1
    44   24   25 1
    45   24   43 1
    46   24   44 1
    47   25   45 1
    48   25   46 1
    49   26   27 1
    50   26   47 1
    51   27   48 1
