@<TRIPOS>MOLECULE
ZINC40267679
   54    58     0     0     0
SMALL
USER_CHARGES

@<TRIPOS>ATOM
      1 C1         -0.0184    1.5028    0.0103 C.3       1 <0>        -0.0804
      2 C2          0.0021   -0.0041    0.0020 C.2       1 <0>         0.1422
      3 C3          0.0079   -0.8059   -1.1240 C.2       1 <0>        -0.2703
      4 C4          0.0320   -2.1293   -0.7061 C.2       1 <0>         0.3230
      5 N1          0.0339   -2.1193    0.6480 N.pl3     1 <0>        -0.3039
      6 N2          0.0231   -0.7776    1.0636 N.2       1 <0>        -0.2755
      7 C5          0.0483   -3.2410    1.4813 C.2       1 <0>         0.4186
      8 C6          0.0426   -3.0688    2.8783 C.2       1 <0>        -0.1543
      9 C7          0.0565   -4.1524    3.6994 C.2       1 <0>         0.0158
     10 C8          0.0764   -5.4408    3.1329 C.2       1 <0>         0.1256
     11 N3          0.0929   -6.6637    3.6382 N.2       1 <0>        -0.2428
     12 N4          0.1074   -7.5201    2.6769 N.2       1 <0>        -0.2579
     13 C9          0.1011   -6.9029    1.5213 C.2       1 <0>         0.1921
     14 N5          0.0814   -5.5751    1.7657 N.pl3     1 <0>        -0.2823
     15 N6          0.0614   -4.4409    0.9515 N.2       1 <0>        -0.2572
     16 N7          0.0571   -3.1597   -1.5984 N.2       1 <0>        -0.5530
     17 C10         0.3444   -2.9126   -2.8414 C.2       1 <0>         0.4164
     18 C11         0.7165   -1.5521   -3.3536 C.3       1 <0>        -0.1092
     19 C12        -0.0115   -0.4413   -2.5872 C.3       1 <0>         0.0517
     20 H1          0.5012    0.5087   -2.7380 H         1 <0>         0.1209
     21 C13        -1.4357   -0.3365   -3.0687 C.ar      1 <0>        -0.1152
     22 C14        -2.2754   -1.4307   -2.9871 C.ar      1 <0>        -0.0764
     23 C15        -3.5818   -1.3354   -3.4291 C.ar      1 <0>        -0.1531
     24 C16        -4.0517   -0.1452   -3.9535 C.ar      1 <0>        -0.0757
     25 C17        -3.2164    0.9516   -4.0368 C.ar      1 <0>        -0.2058
     26 C18        -1.9063    0.8601   -3.5890 C.ar      1 <0>         0.1434
     27 O1         -1.0841    1.9395   -3.6648 O.3       1 <0>        -0.3097
     28 C19        -1.6364    3.1386   -4.2117 C.3       1 <0>         0.0624
     29 C20        -0.5699    4.2357   -4.2158 C.3       1 <0>        -0.0935
     30 C21         0.5631    3.8420   -5.1656 C.3       1 <0>        -0.1482
     31 C22        -1.1940    5.5518   -4.6842 C.3       1 <0>        -0.1484
     32 O2          0.3065   -3.9355   -3.7195 O.3       1 <0>        -0.4496
     33 H2          1.0042    1.8801    0.0026 H         1 <0>         0.0878
     34 H3         -0.5455    1.8639   -0.8728 H         1 <0>         0.0877
     35 H4         -0.5286    1.8543    0.9071 H         1 <0>         0.0803
     36 H5          0.0277   -2.0741    3.2987 H         1 <0>         0.1744
     37 H6          0.0526   -4.0263    4.7720 H         1 <0>         0.1800
     38 H7          0.1104   -7.3718    0.5485 H         1 <0>         0.2332
     39 H8          1.7922   -1.4132   -3.2456 H         1 <0>         0.1152
     40 H9          0.4549   -1.4858   -4.4097 H         1 <0>         0.1145
     41 H10        -1.9107   -2.3613   -2.5779 H         1 <0>         0.1203
     42 H11        -4.2364   -2.1920   -3.3651 H         1 <0>         0.1225
     43 H12        -5.0726   -0.0734   -4.2985 H         1 <0>         0.1257
     44 H13        -3.5838    1.8809   -4.4465 H         1 <0>         0.1294
     45 H14        -1.9700    2.9524   -5.2325 H         1 <0>         0.0632
     46 H15        -2.4838    3.4580   -3.6050 H         1 <0>         0.0628
     47 H16        -0.1728    4.3601   -3.2084 H         1 <0>         0.0827
     48 H17         0.1659    3.7175   -6.1731 H         1 <0>         0.0539
     49 H18         1.3228    4.6236   -5.1686 H         1 <0>         0.0576
     50 H19         1.0077    2.9044   -4.8320 H         1 <0>         0.0628
     51 H20        -2.0011    5.8323   -4.0075 H         1 <0>         0.0581
     52 H21        -0.4342    6.3334   -4.6871 H         1 <0>         0.0660
     53 H22        -1.5911    5.4273   -5.6916 H         1 <0>         0.0580
     54 H23         0.0606   -4.7835   -3.3251 H         1 <0>         0.4139
@<TRIPOS>BOND
     1    1    2 1
     2    1   33 1
     3    1   34 1
     4    1   35 1
     5    2    6 2
     6    2    3 1
     7    3   19 1
     8    3    4 2
     9    4    5 1
    10    4   16 1
    11    5    6 1
    12    5    7 1
    13    7   15 2
    14    7    8 1
    15    8    9 2
    16    8   36 1
    17    9   10 1
    18    9   37 1
    19   10   14 1
    20   10   11 2
    21   11   12 1
    22   12   13 2
    23   13   14 1
    24   13   38 1
    25   14   15 1
    26   16   17 2
    27   17   18 1
    28   17   32 1
    29   18   19 1
    30   18   39 1
    31   18   40 1
    32   19   20 1
    33   19   21 1
    34   21   26 ar
    35   21   22 ar
    36   22   23 ar
    37   22   41 1
    38   23   24 ar
    39   23   42 1
    40   24   25 ar
    41   24   43 1
    42   25   26 ar
    43   25   44 1
    44   26   27 1
    45   27   28 1
    46   28   29 1
    47   28   45 1
    48   28   46 1
    49   29   30 1
    50   29   31 1
    51   29   47 1
    52   30   48 1
    53   30   49 1
    54   30   50 1
    55   31   51 1
    56   31   52 1
    57   31   53 1
    58   32   54 1
