@<TRIPOS>MOLECULE
ZINC59369040
   63    67     0     0     0
SMALL
USER_CHARGES

@<TRIPOS>ATOM
      1 C1          0.7981   -0.1319    0.2035 C.3       1 <0>         0.0214
      2 O1          0.6106   -1.5402    0.3572 O.3       1 <0>        -0.3081
      3 C2         -0.6691   -1.9975    0.3420 C.ar      1 <0>         0.1602
      4 C3         -1.7223   -1.1097    0.1767 C.ar      1 <0>        -0.2009
      5 C4         -3.0221   -1.5771    0.1611 C.ar      1 <0>        -0.0448
      6 C5         -3.2740   -2.9284    0.3105 C.ar      1 <0>        -0.1815
      7 C6         -2.2261   -3.8151    0.4759 C.ar      1 <0>        -0.0753
      8 C7         -0.9241   -3.3535    0.4861 C.ar      1 <0>        -0.1408
      9 C8         -4.6930   -3.4354    0.2936 C.3       1 <0>         0.0946
     10 H1         -5.3368   -2.6978   -0.1856 H         1 <0>         0.1355
     11 C9         -5.1676   -3.6708    1.7290 C.3       1 <0>         0.0318
     12 N1         -6.5488   -4.1708    1.7122 N.3       1 <0>        -0.6956
     13 C10        -7.0715   -4.3194    3.0770 C.3       1 <0>         0.1323
     14 C11        -7.6790   -3.0157    3.5270 C.2       1 <0>        -0.2764
     15 C12        -7.0574   -2.0537    4.2432 C.2       1 <0>         0.0765
     16 N2         -7.9367   -1.0483    4.4422 N.pl3     1 <0>        -0.4658
     17 H2         -7.7613   -0.2263    4.9263 H         1 <0>         0.4463
     18 N3         -9.1459   -1.3986    3.8281 N.2       1 <0>        -0.2690
     19 C13        -8.9940   -2.5811    3.2703 C.2       1 <0>         0.1325
     20 C14       -10.0270   -3.3266    2.5089 C.ar      1 <0>        -0.0185
     21 C15        -9.6680   -4.0627    1.3817 C.ar      1 <0>        -0.1007
     22 C16       -10.6298   -4.7538    0.6744 C.ar      1 <0>        -0.1130
     23 C17       -11.9564   -4.7198    1.0819 C.ar      1 <0>         0.0640
     24 C18       -12.3198   -3.9884    2.2078 C.ar      1 <0>         0.0575
     25 C19       -11.3565   -3.2965    2.9229 C.ar      1 <0>        -0.0824
     26 O2        -13.6149   -3.9507    2.6257 O.3       1 <0>        -0.3040
     27 C20       -14.6091   -4.3546    1.6781 C.3       1 <0>         0.0189
     28 C21       -14.1408   -5.6577    1.0164 C.3       1 <0>         0.0193
     29 O3        -12.8899   -5.4061    0.3671 O.3       1 <0>        -0.3049
     30 N4         -4.7530   -4.6979   -0.4552 N.4       1 <0>        -0.3829
     31 C22        -6.1670   -5.0943   -0.6784 C.3       1 <0>        -0.0036
     32 C23        -6.0795   -6.0494   -1.8952 C.3       1 <0>        -0.1477
     33 C24        -4.9838   -5.3968   -2.7689 C.3       1 <0>        -0.1446
     34 C25        -4.1666   -4.5207   -1.8014 C.3       1 <0>        -0.0071
     35 H3          1.8631    0.0982    0.2337 H         1 <0>         0.1110
     36 H4          0.3843    0.1875   -0.7529 H         1 <0>         0.0621
     37 H5          0.2900    0.3928    1.0126 H         1 <0>         0.0620
     38 H6         -1.5261   -0.0540    0.0606 H         1 <0>         0.1405
     39 H7         -3.8424   -0.8864    0.0324 H         1 <0>         0.1332
     40 H8         -2.4255   -4.8701    0.5928 H         1 <0>         0.1260
     41 H9         -0.1057   -4.0471    0.6108 H         1 <0>         0.1433
     42 H10        -4.5212   -4.4051    2.2096 H         1 <0>         0.1015
     43 H11        -5.1273   -2.7332    2.2833 H         1 <0>         0.0814
     44 H12        -7.8329   -5.0992    3.0916 H         1 <0>         0.0999
     45 H13        -6.2585   -4.5927    3.7497 H         1 <0>         0.0852
     46 H14        -6.0368   -2.0837    4.5953 H         1 <0>         0.1771
     47 H15        -8.6369   -4.0919    1.0615 H         1 <0>         0.1334
     48 H16       -10.3498   -5.3231   -0.1997 H         1 <0>         0.1395
     49 H17       -11.6369   -2.7301    3.7987 H         1 <0>         0.1394
     50 H18       -15.5574   -4.5219    2.1890 H         1 <0>         0.1280
     51 H19       -14.7307   -3.5805    0.9204 H         1 <0>         0.0815
     52 H20       -14.0126   -6.4298    1.7750 H         1 <0>         0.0822
     53 H21       -14.8776   -5.9822    0.2816 H         1 <0>         0.1279
     54 H22        -6.5622   -5.6164    0.1930 H         1 <0>         0.1633
     55 H23        -6.7777   -4.2233   -0.9161 H         1 <0>         0.1233
     56 H24        -5.7777   -7.0484   -1.5804 H         1 <0>         0.0961
     57 H25        -7.0294   -6.0825   -2.4287 H         1 <0>         0.1139
     58 H26        -4.3486   -6.1627   -3.2139 H         1 <0>         0.1017
     59 H27        -5.4365   -4.7811   -3.5461 H         1 <0>         0.1005
     60 H28        -4.2336   -3.4748   -2.1008 H         1 <0>         0.1262
     61 H29        -3.1253   -4.8429   -1.7981 H         1 <0>         0.1266
     62 H30        -7.1438   -3.5711    1.1605 H         1 <0>         0.3477
     63 H31        -4.2621   -5.4235    0.0454 H         1 <0>         0.4223
@<TRIPOS>BOND
     1    1    2 1
     2    1   35 1
     3    1   36 1
     4    1   37 1
     5    2    3 1
     6    3    8 ar
     7    3    4 ar
     8    4    5 ar
     9    4   38 1
    10    5    6 ar
    11    5   39 1
    12    6    7 ar
    13    6    9 1
    14    7    8 ar
    15    7   40 1
    16    8   41 1
    17    9   10 1
    18    9   11 1
    19    9   30 1
    20   11   12 1
    21   11   42 1
    22   11   43 1
    23   12   13 1
    24   12   62 1
    25   13   14 1
    26   13   44 1
    27   13   45 1
    28   14   19 1
    29   14   15 2
    30   15   16 1
    31   15   46 1
    32   16   17 1
    33   16   18 1
    34   18   19 2
    35   19   20 1
    36   20   25 ar
    37   20   21 ar
    38   21   22 ar
    39   21   47 1
    40   22   23 ar
    41   22   48 1
    42   23   29 1
    43   23   24 ar
    44   24   25 ar
    45   24   26 1
    46   25   49 1
    47   26   27 1
    48   27   28 1
    49   27   50 1
    50   27   51 1
    51   28   29 1
    52   28   52 1
    53   28   53 1
    54   30   34 1
    55   30   31 1
    56   30   63 1
    57   31   32 1
    58   31   54 1
    59   31   55 1
    60   32   33 1
    61   32   56 1
    62   32   57 1
    63   33   34 1
    64   33   58 1
    65   33   59 1
    66   34   60 1
    67   34   61 1
