@<TRIPOS>MOLECULE
ZINC47698514
   45    48     0     0     0
SMALL
USER_CHARGES

@<TRIPOS>ATOM
      1 C1          0.1543    1.3800    0.6434 C.ar      1 <0>        -0.0918
      2 C2          1.1480    2.1080    0.0615 C.ar      1 <0>        -0.1098
      3 C3          2.2112    1.4515   -0.5774 C.ar      1 <0>        -0.0941
      4 C4          3.2598    2.1564   -1.1914 C.ar      1 <0>         0.1500
      5 N1          4.2339    1.5005   -1.7770 N.ar      1 <0>        -0.4875
      6 C5          4.2824    0.1761   -1.8210 C.ar      1 <0>         0.0774
      7 C6          3.3141   -0.5979   -1.2559 C.ar      1 <0>        -0.1583
      8 C7          2.2379    0.0333   -0.6094 C.ar      1 <0>        -0.0405
      9 C8          1.1977   -0.6939    0.0001 C.ar      1 <0>         0.1675
     10 C9          0.1706   -0.0113    0.6178 C.ar      1 <0>        -0.1154
     11 N2          1.2055   -2.0903   -0.0210 N.am      1 <0>        -0.6783
     12 C10         0.0482   -2.7724    0.0881 C.2       1 <0>         0.7044
     13 O1         -1.0106   -2.1749    0.1020 O.2       1 <0>        -0.5642
     14 N3          0.0646   -4.1168    0.1819 N.am      1 <0>        -0.7384
     15 C11        -1.1933   -4.8582    0.3006 C.3       1 <0>         0.1432
     16 C12        -0.8958   -6.3563    0.3903 C.3       1 <0>        -0.0823
     17 C13        -2.1898   -7.1190    0.5124 C.ar      1 <0>        -0.0802
     18 C14        -2.6697   -7.4695    1.7594 C.ar      1 <0>        -0.1101
     19 C15        -3.8580   -8.1707    1.8719 C.ar      1 <0>         0.0755
     20 C16        -4.5655   -8.5221    0.7350 C.ar      1 <0>        -0.1083
     21 C17        -4.0875   -8.1731   -0.5141 C.ar      1 <0>        -0.1723
     22 C18        -2.9019   -7.4640   -0.6279 C.ar      1 <0>         0.1321
     23 O2         -2.4277   -7.1021   -1.8504 O.3       1 <0>        -0.3224
     24 C19        -2.9835   -7.7745   -2.9841 C.3       1 <0>         0.2198
     25 O3         -4.4105   -7.7813   -2.8579 O.3       1 <0>        -0.3801
     26 C20        -4.8643   -8.5647   -1.7457 C.3       1 <0>         0.0995
     27 F1         -4.3272   -8.5128    3.0918 F         1 <0>        -0.1351
     28 H1         -0.6585    1.8918    1.1373 H         1 <0>         0.1319
     29 H2          1.1175    3.1871    0.0915 H         1 <0>         0.1353
     30 H3          3.2640    3.2364   -1.1819 H         1 <0>         0.1666
     31 H4          5.1127   -0.3024   -2.3192 H         1 <0>         0.1536
     32 H5          3.3726   -1.6753   -1.3038 H         1 <0>         0.1305
     33 H6         -0.6302   -0.5631    1.0875 H         1 <0>         0.1529
     34 H7          2.0438   -2.5692   -0.1142 H         1 <0>         0.4073
     35 H8          0.9094   -4.5934    0.1709 H         1 <0>         0.3989
     36 H9         -1.7204   -4.5380    1.1993 H         1 <0>         0.0717
     37 H10        -1.8141   -4.6628   -0.5738 H         1 <0>         0.0757
     38 H11        -0.3687   -6.6765   -0.5084 H         1 <0>         0.0889
     39 H12        -0.2751   -6.5517    1.2647 H         1 <0>         0.0845
     40 H13        -2.1176   -7.1967    2.6466 H         1 <0>         0.1464
     41 H14        -5.4920   -9.0699    0.8242 H         1 <0>         0.1438
     42 H15        -2.6994   -7.2497   -3.8962 H         1 <0>         0.1456
     43 H16        -2.6144   -8.7995   -3.0187 H         1 <0>         0.0662
     44 H17        -4.7147   -9.6252   -1.9483 H         1 <0>         0.0808
     45 H18        -5.9246   -8.3705   -1.5842 H         1 <0>         0.1191
@<TRIPOS>BOND
     1    1   10 ar
     2    1    2 ar
     3    1   28 1
     4    2    3 ar
     5    2   29 1
     6    3    8 ar
     7    3    4 ar
     8    4    5 ar
     9    4   30 1
    10    5    6 ar
    11    6    7 ar
    12    6   31 1
    13    7    8 ar
    14    7   32 1
    15    8    9 ar
    16    9   10 ar
    17    9   11 1
    18   10   33 1
    19   11   12 am
    20   11   34 1
    21   12   13 2
    22   12   14 am
    23   14   15 1
    24   14   35 1
    25   15   16 1
    26   15   36 1
    27   15   37 1
    28   16   17 1
    29   16   38 1
    30   16   39 1
    31   17   22 ar
    32   17   18 ar
    33   18   19 ar
    34   18   40 1
    35   19   20 ar
    36   19   27 1
    37   20   21 ar
    38   20   41 1
    39   21   26 1
    40   21   22 ar
    41   22   23 1
    42   23   24 1
    43   24   25 1
    44   24   42 1
    45   24   43 1
    46   25   26 1
    47   26   44 1
    48   26   45 1
