@<TRIPOS>MOLECULE
ZINC15682362
   39    41     0     0     0
SMALL
USER_CHARGES
N-(2,5-dimethylphenyl)-1,1-dioxo-2H-benzo[e][1,2,4]thiadiazine-7-sulfonamide
@<TRIPOS>ATOM
      1 C1          5.9966    3.5999    2.2528 C.3       1 <0>        -0.1189
      2 C2          4.5829    3.5896    2.7749 C.ar      1 <0>        -0.0599
      3 C3          4.3323    3.2158    4.0828 C.ar      1 <0>        -0.1279
      4 C4          3.0368    3.2049    4.5658 C.ar      1 <0>        -0.0921
      5 C5          1.9888    3.5727    3.7446 C.ar      1 <0>        -0.1063
      6 C6          2.2364    3.9439    2.4294 C.ar      1 <0>         0.1519
      7 C7          3.5394    3.9537    1.9472 C.ar      1 <0>        -0.1749
      8 N1          1.1786    4.3122    1.5950 N.pl3     1 <0>        -1.0511
      9 S1          1.2199    3.9247   -0.0145 S.o2      1 <0>         2.6932
     10 O1          2.4522    4.4200   -0.5200 O.2       1 <0>        -0.9390
     11 O2         -0.0358    4.3092   -0.5572 O.2       1 <0>        -0.9426
     12 C8          1.2998    2.1680   -0.1255 C.ar      1 <0>        -0.7035
     13 C9          2.5280    1.5314   -0.1517 C.ar      1 <0>         0.0468
     14 C10         2.6062    0.1577   -0.2432 C.ar      1 <0>        -0.1259
     15 C11         1.4363   -0.6039   -0.3105 C.ar      1 <0>         0.2553
     16 C12         0.2033    0.0569   -0.2741 C.ar      1 <0>        -0.7304
     17 C13         0.1319    1.4233   -0.1872 C.ar      1 <0>         0.1029
     18 S2         -1.2557   -0.9424   -0.3340 S.o2      1 <0>         2.6660
     19 O3         -1.6059   -1.2557    1.0070 O.2       1 <0>        -0.9206
     20 O4         -2.1532   -0.3216   -1.2441 O.2       1 <0>        -0.9236
     21 N2         -0.7252   -2.3565   -1.0502 N.pl3     1 <0>        -1.0625
     22 C14         0.5464   -2.7656   -0.7283 C.2       1 <0>         0.4458
     23 N3          1.4997   -1.9596   -0.4232 N.2       1 <0>        -0.5600
     24 C15         0.5778    3.5665    4.2738 C.3       1 <0>        -0.1161
     25 H1          6.4409    4.5800    2.4265 H         1 <0>         0.0753
     26 H2          6.5807    2.8392    2.7707 H         1 <0>         0.0698
     27 H3          5.9905    3.3881    1.1836 H         1 <0>         0.0703
     28 H4          5.1503    2.9315    4.7280 H         1 <0>         0.1265
     29 H5          2.8446    2.9126    5.5875 H         1 <0>         0.1287
     30 H6          3.7359    4.2462    0.9263 H         1 <0>         0.1610
     31 H7          0.4197    4.7949    1.9583 H         1 <0>         0.4285
     32 H8          3.4345    2.1162   -0.0999 H         1 <0>         0.1547
     33 H9          3.5702   -0.3289   -0.2631 H         1 <0>         0.1554
     34 H10        -0.8285    1.9170   -0.1714 H         1 <0>         0.1551
     35 H11        -1.2853   -2.8617   -1.6601 H         1 <0>         0.4452
     36 H12         0.7569   -3.8249   -0.7323 H         1 <0>         0.2125
     37 H13         0.1308    2.5867    4.1052 H         1 <0>         0.0740
     38 H14         0.5895    3.7814    5.3423 H         1 <0>         0.0728
     39 H15        -0.0076    4.3268    3.7567 H         1 <0>         0.0636
@<TRIPOS>BOND
     1    1    2 1
     2    1   25 1
     3    1   26 1
     4    1   27 1
     5    2    7 ar
     6    2    3 ar
     7    3    4 ar
     8    3   28 1
     9    4    5 ar
    10    4   29 1
    11    5    6 ar
    12    5   24 1
    13    6    7 ar
    14    6    8 1
    15    7   30 1
    16    8    9 1
    17    8   31 1
    18    9   10 2
    19    9   11 2
    20    9   12 1
    21   12   17 ar
    22   12   13 ar
    23   13   14 ar
    24   13   32 1
    25   14   15 ar
    26   14   33 1
    27   15   23 1
    28   15   16 ar
    29   16   17 ar
    30   16   18 1
    31   17   34 1
    32   18   19 2
    33   18   20 2
    34   18   21 1
    35   21   22 1
    36   21   35 1
    37   22   23 2
    38   22   36 1
    39   24   37 1
    40   24   38 1
    41   24   39 1
