@<TRIPOS>MOLECULE
ZINC67103817
   42    42     0     0     0
SMALL
USER_CHARGES

@<TRIPOS>ATOM
      1 C1         -0.0187    1.5258    0.0104 C.3       1 <0>        -0.1492
      2 C2          0.0021   -0.0041    0.0020 C.3       1 <0>        -0.0977
      3 C3          0.7421   -0.5109    1.2415 C.3       1 <0>        -0.1528
      4 C4         -1.4333   -0.5336    0.0129 C.3       1 <0>        -0.1007
      5 C5         -1.4157   -2.0577   -0.1212 C.3       1 <0>        -0.1331
      6 C6         -2.8295   -2.5793   -0.1105 C.2       1 <0>         0.5155
      7 O1         -3.7596   -1.8080   -0.0059 O.2       1 <0>        -0.5259
      8 N1         -3.0602   -3.9028   -0.2171 N.am      1 <0>        -0.5359
      9 N2         -4.3746   -4.3878   -0.2072 N.am      1 <0>        -0.5296
     10 C7         -4.6054   -5.7113   -0.3138 C.2       1 <0>         0.7172
     11 O2         -5.7461   -6.1322   -0.3052 O.2       1 <0>        -0.5645
     12 N3         -3.5718   -6.5684   -0.4300 N.am      1 <0>        -0.7439
     13 C8         -3.8226   -8.0071   -0.5460 C.3       1 <0>         0.2170
     14 C9         -2.5099   -8.7381   -0.6623 C.2       1 <0>        -0.1389
     15 C10        -1.7274   -9.2488    0.3196 C.2       1 <0>        -0.1643
     16 C11        -0.5510   -9.8877   -0.0248 C.2       1 <0>        -0.0068
     17 C12        -0.2147   -9.9847   -1.3343 C.2       1 <0>        -0.7621
     18 S1         -1.5859   -9.1632   -2.1295 S.3       1 <0>         0.2012
     19 S2          1.2042  -10.7331   -2.0631 S.o2      1 <0>         2.7372
     20 O3          1.3859  -10.1126   -3.3285 O.2       1 <0>        -0.9529
     21 O4          2.2166  -10.7409   -1.0660 O.2       1 <0>        -0.9484
     22 N4          0.8230  -12.3165   -2.3628 N.pl3     1 <0>        -1.2451
     23 H1          1.0039    1.9031    0.0027 H         1 <0>         0.0563
     24 H2         -0.5459    1.8868   -0.8726 H         1 <0>         0.0558
     25 H3         -0.5289    1.8773    0.9072 H         1 <0>         0.0559
     26 H4          0.5123   -0.3556   -0.8948 H         1 <0>         0.0719
     27 H5          0.2319   -0.1594    2.1383 H         1 <0>         0.0561
     28 H6          0.7568   -1.6008    1.2356 H         1 <0>         0.0548
     29 H7          1.7647   -0.1336    1.2338 H         1 <0>         0.0563
     30 H8         -1.9156   -0.2570    0.9504 H         1 <0>         0.0732
     31 H9         -1.9862   -0.1019   -0.8214 H         1 <0>         0.0732
     32 H10        -0.9334   -2.3344   -1.0587 H         1 <0>         0.1015
     33 H11        -0.8628   -2.4894    0.7131 H         1 <0>         0.1027
     34 H12        -2.3163   -4.5197   -0.3008 H         1 <0>         0.4187
     35 H13        -5.1185   -3.7709   -0.1236 H         1 <0>         0.4463
     36 H14        -2.6617   -6.2327   -0.4369 H         1 <0>         0.3952
     37 H15        -4.3553   -8.3555    0.3389 H         1 <0>         0.1031
     38 H16        -4.4260   -8.2004   -1.4329 H         1 <0>         0.0946
     39 H17        -2.0184   -9.1575    1.3557 H         1 <0>         0.1503
     40 H18         0.0908  -10.3030    0.7381 H         1 <0>         0.1543
     41 H19         1.2364  -12.7825   -3.1064 H         1 <0>         0.4250
     42 H20         0.1863  -12.7780   -1.7949 H         1 <0>         0.4188
@<TRIPOS>BOND
     1    1    2 1
     2    1   23 1
     3    1   24 1
     4    1   25 1
     5    2    3 1
     6    2    4 1
     7    2   26 1
     8    3   27 1
     9    3   28 1
    10    3   29 1
    11    4    5 1
    12    4   30 1
    13    4   31 1
    14    5    6 1
    15    5   32 1
    16    5   33 1
    17    6    7 2
    18    6    8 am
    19    8    9 1
    20    8   34 1
    21    9   10 am
    22    9   35 1
    23   10   11 2
    24   10   12 am
    25   12   13 1
    26   12   36 1
    27   13   14 1
    28   13   37 1
    29   13   38 1
    30   14   18 1
    31   14   15 2
    32   15   16 1
    33   15   39 1
    34   16   17 2
    35   16   40 1
    36   17   18 1
    37   17   19 1
    38   19   20 2
    39   19   21 2
    40   19   22 1
    41   22   41 1
    42   22   42 1
