@<TRIPOS>MOLECULE
ZINC59060639
   49    51     0     0     0
SMALL
USER_CHARGES

@<TRIPOS>ATOM
      1 C1         -3.3949    1.5401    0.6281 C.3       1 <0>        -0.1285
      2 C2         -2.9430    0.1221    0.3911 C.ar      1 <0>        -0.0505
      3 C3         -3.2948   -0.5299   -0.7748 C.ar      1 <0>        -0.1211
      4 C4         -2.8806   -1.8308   -0.9930 C.ar      1 <0>        -0.0316
      5 C5         -2.1128   -2.4834   -0.0457 C.ar      1 <0>        -0.6651
      6 C6         -1.7575   -1.8370    1.1217 C.ar      1 <0>        -0.0231
      7 C7         -2.1679   -0.5285    1.3418 C.ar      1 <0>         0.1212
      8 N1         -1.8051    0.1312    2.5213 N.am      1 <0>        -0.6609
      9 C8         -1.5887   -0.5747    3.6489 C.2       1 <0>         0.5330
     10 O1         -1.6262   -1.7867    3.6223 O.2       1 <0>        -0.4938
     11 C9         -1.3002    0.1421    4.9428 C.3       1 <0>        -0.1524
     12 S1         -1.0564   -1.0742    6.2664 S.3       1 <0>         0.0943
     13 C10        -0.7333   -0.0923    7.6933 C.2       1 <0>         0.3904
     14 N2         -0.7263    1.2200    7.5874 N.2       1 <0>        -0.5832
     15 C11        -0.4837    1.9974    8.6543 C.2       1 <0>         0.5276
     16 O2         -0.4814    3.2146    8.5385 O.2       1 <0>        -0.5200
     17 C12        -0.2322    1.4060    9.9085 C.2       1 <0>        -0.3834
     18 C13        -0.2412    0.0448   10.0098 C.2       1 <0>         0.4585
     19 N3         -0.5000   -0.7052    8.8901 N.pl3     1 <0>        -0.4636
     20 C14        -0.5192   -2.1039    8.9747 C.ar      1 <0>         0.0709
     21 C15         0.5045   -2.8491    8.4051 C.ar      1 <0>        -0.0775
     22 C16         0.4833   -4.2274    8.4898 C.ar      1 <0>        -0.0932
     23 C17        -0.5574   -4.8658    9.1412 C.ar      1 <0>        -0.0126
     24 C18        -1.5790   -4.1253    9.7096 C.ar      1 <0>        -0.0967
     25 C19        -1.5591   -2.7465    9.6331 C.ar      1 <0>        -0.0848
     26 Cl1        -0.5818   -6.5985    9.2449 Cl        1 <0>        -0.0466
     27 N4          0.0008   -0.5666   11.2186 N.pl3     1 <0>        -0.8440
     28 S2         -1.5880   -4.1415   -0.3284 S.o2      1 <0>         2.6999
     29 O3         -1.3409   -4.7126    0.9491 O.2       1 <0>        -0.9543
     30 O4         -2.5092   -4.7074   -1.2506 O.2       1 <0>        -0.9594
     31 N5         -0.1269   -4.0671   -1.1042 N.pl3     1 <0>        -1.2480
     32 H1         -2.6516    2.2299    0.2285 H         1 <0>         0.0833
     33 H2         -4.3496    1.7055    0.1288 H         1 <0>         0.0817
     34 H3         -3.5104    1.7105    1.6985 H         1 <0>         0.0710
     35 H4         -3.8942   -0.0230   -1.5165 H         1 <0>         0.1405
     36 H5         -3.1575   -2.3386   -1.9051 H         1 <0>         0.1455
     37 H6         -1.1582   -2.3472    1.8613 H         1 <0>         0.1691
     38 H7         -1.7093    1.0964    2.5274 H         1 <0>         0.4187
     39 H8         -0.3982    0.7437    4.8316 H         1 <0>         0.1382
     40 H9         -2.1401    0.7896    5.1946 H         1 <0>         0.1379
     41 H10        -0.0351    2.0196   10.7751 H         1 <0>         0.1535
     42 H11         1.3166   -2.3513    7.8960 H         1 <0>         0.1458
     43 H12         1.2794   -4.8075    8.0469 H         1 <0>         0.1508
     44 H13        -2.3901   -4.6259   10.2175 H         1 <0>         0.1492
     45 H14        -2.3541   -2.1688   10.0810 H         1 <0>         0.1429
     46 H15         0.0931   -0.0319   12.0227 H         1 <0>         0.4261
     47 H16         0.0792   -1.5322   11.2667 H         1 <0>         0.4049
     48 H17         0.5262   -4.7729   -0.9772 H         1 <0>         0.4222
     49 H18         0.0758   -3.3176   -1.6857 H         1 <0>         0.4168
@<TRIPOS>BOND
     1    1    2 1
     2    1   32 1
     3    1   33 1
     4    1   34 1
     5    2    7 ar
     6    2    3 ar
     7    3    4 ar
     8    3   35 1
     9    4    5 ar
    10    4   36 1
    11    5    6 ar
    12    5   28 1
    13    6    7 ar
    14    6   37 1
    15    7    8 1
    16    8    9 am
    17    8   38 1
    18    9   10 2
    19    9   11 1
    20   11   12 1
    21   11   39 1
    22   11   40 1
    23   12   13 1
    24   13   19 1
    25   13   14 2
    26   14   15 1
    27   15   16 2
    28   15   17 1
    29   17   18 2
    30   17   41 1
    31   18   19 1
    32   18   27 1
    33   19   20 1
    34   20   25 ar
    35   20   21 ar
    36   21   22 ar
    37   21   42 1
    38   22   23 ar
    39   22   43 1
    40   23   24 ar
    41   23   26 1
    42   24   25 ar
    43   24   44 1
    44   25   45 1
    45   27   46 1
    46   27   47 1
    47   28   29 2
    48   28   30 2
    49   28   31 1
    50   31   48 1
    51   31   49 1
