@<TRIPOS>MOLECULE
ZINC00160952
   21    22     0     0     0
SMALL
USER_CHARGES
4,5-dichloro-1-(4-nitrophenyl)-imidazole
@<TRIPOS>ATOM
      1 C1         -2.9030    1.1704   -0.9031 C.ar      1 <0>        -0.1063
      2 C2         -4.2185    0.7495   -0.8947 C.ar      1 <0>        -0.0332
      3 C3         -5.1060    1.2684    0.0301 C.ar      1 <0>        -0.0349
      4 C4         -4.6786    2.2065    0.9516 C.ar      1 <0>        -0.0342
      5 C5         -3.3633    2.6280    0.9509 C.ar      1 <0>        -0.1064
      6 C6         -2.4699    2.1085    0.0240 C.ar      1 <0>         0.1624
      7 N1         -1.1340    2.5348    0.0205 N.pl3     1 <0>        -0.4184
      8 C7         -0.6963    3.8217    0.0284 C.2       1 <0>         0.2410
      9 N2          0.6088    3.8177    0.0163 N.2       1 <0>        -0.4558
     10 C8          1.0501    2.5505    0.0057 C.2       1 <0>         0.0875
     11 C9         -0.0215    1.7317    0.0116 C.2       1 <0>         0.0321
     12 Cl1         0.0021   -0.0041    0.0020 Cl        1 <0>         0.0270
     13 Cl2         2.7127    2.0514   -0.0118 Cl        1 <0>         0.0225
     14 N3         -6.5164    0.8191    0.0332 N.pl3     1 <0>         0.0230
     15 O1         -7.2992    1.2757    0.8469 O.2       1 <0>        -0.1465
     16 O2         -6.8941   -0.0072   -0.7781 O.3       1 <0>        -0.1473
     17 H1         -2.2113    0.7677   -1.6282 H         1 <0>         0.1562
     18 H2         -4.5552    0.0169   -1.6133 H         1 <0>         0.1682
     19 H3         -5.3741    2.6104    1.6725 H         1 <0>         0.1691
     20 H4         -3.0302    3.3613    1.6704 H         1 <0>         0.1609
     21 H5         -1.3238    4.7007    0.0384 H         1 <0>         0.2333
@<TRIPOS>BOND
     1    1    6 ar
     2    1    2 ar
     3    1   17 1
     4    2    3 ar
     5    2   18 1
     6    3    4 ar
     7    3   14 1
     8    4    5 ar
     9    4   19 1
    10    5    6 ar
    11    5   20 1
    12    6    7 1
    13    7   11 1
    14    7    8 1
    15    8    9 2
    16    8   21 1
    17    9   10 1
    18   10   11 2
    19   10   13 1
    20   11   12 1
    21   14   15 2
    22   14   16 1
