@<TRIPOS>MOLECULE
ZINC39689178
   85    89     0     0     0
SMALL
USER_CHARGES

@<TRIPOS>ATOM
      1 C1         -1.2444    2.1485   -0.6642 C.3       1 <0>        -0.1777
      2 C2         -0.7101    0.8214   -0.1906 C.2       1 <0>         0.5159
      3 O1          0.4598    0.7109    0.1096 O.2       1 <0>        -0.5393
      4 N1         -1.5323   -0.2427   -0.1005 N.am      1 <0>        -0.6205
      5 C3         -2.9505   -0.1260   -0.4664 C.3       1 <0>         0.1071
      6 C4         -3.8043   -0.6237    0.7041 C.3       1 <0>        -0.1216
      7 C5         -3.3674   -2.0408    1.0825 C.3       1 <0>        -0.1013
      8 C6         -1.9028   -2.0235    1.5261 C.3       1 <0>        -0.1195
      9 C7         -1.0262   -1.5430    0.3596 C.3       1 <0>         0.1123
     10 C8         -4.2279   -2.5468    2.2115 C.2       1 <0>         0.5473
     11 O2         -4.6219   -1.7798    3.0644 O.2       1 <0>        -0.5197
     12 N2         -4.5597   -3.8516    2.2733 N.am      1 <0>        -0.6257
     13 C9         -4.0874   -4.9513    1.3994 C.3       1 <0>         0.1090
     14 C10        -3.8842   -6.1489    2.3543 C.3       1 <0>        -0.1129
     15 H1         -2.8446   -6.2051    2.6769 H         1 <0>         0.1125
     16 C11        -4.8016   -5.8550    3.5531 C.3       1 <0>        -0.0729
     17 C12        -5.4746   -4.5120    3.2350 C.3       1 <0>         0.1044
     18 C13        -3.9782   -5.7356    4.8319 C.3       1 <0>        -0.1321
     19 C14        -4.9175   -5.5001    6.0181 C.3       1 <0>        -0.0131
     20 N3         -5.8641   -6.6171    6.1242 N.4       1 <0>        -0.5039
     21 C15        -6.7151   -6.6677    4.9293 C.3       1 <0>        -0.0092
     22 C16        -5.8518   -6.9522    3.6970 C.3       1 <0>        -0.1441
     23 C17        -4.2934   -7.4330    1.6800 C.2       1 <0>         0.5227
     24 O3         -5.1104   -7.4137    0.7838 O.2       1 <0>        -0.5087
     25 N4         -3.7514   -8.6028    2.0727 N.am      1 <0>        -0.7351
     26 C18        -4.1492   -9.8511    1.4171 C.3       1 <0>         0.1203
     27 C19        -3.3918  -11.0218    2.0469 C.3       1 <0>        -0.1103
     28 C20        -1.8953  -10.8803    1.7541 C.3       1 <0>        -0.1450
     29 C21        -1.1538  -12.0944    2.3179 C.3       1 <0>        -0.0076
     30 N5         -1.6634  -13.3189    1.6890 N.4       1 <0>        -0.3809
     31 C22        -3.0808  -13.4987    2.0251 C.3       1 <0>        -0.0103
     32 C23        -3.8964  -12.3387    1.4501 C.3       1 <0>        -0.1405
     33 C24        -0.8960  -14.4732    2.1755 C.3       1 <0>         0.0201
     34 C25         0.5833  -14.3376    1.7596 C.3       1 <0>        -0.1420
     35 C26         1.0185  -15.7862    1.4262 C.3       1 <0>        -0.1256
     36 C27        -0.2390  -16.3705    0.7360 C.3       1 <0>        -0.1317
     37 C28        -1.4189  -15.7658    1.5246 C.3       1 <0>        -0.1449
     38 H2         -0.4389    2.8829   -0.6712 H         1 <0>         0.0966
     39 H3         -1.6458    2.0399   -1.6718 H         1 <0>         0.0910
     40 H4         -2.0349    2.4827    0.0077 H         1 <0>         0.0905
     41 H5         -3.1893    0.9168   -0.6754 H         1 <0>         0.0982
     42 H6         -3.1512   -0.7330   -1.3492 H         1 <0>         0.0745
     43 H7         -3.6709    0.0388    1.5593 H         1 <0>         0.0848
     44 H8         -4.8540   -0.6328    0.4106 H         1 <0>         0.0827
     45 H9         -3.4778   -2.6975    0.2196 H         1 <0>         0.0941
     46 H10        -1.7872   -1.3478    2.3736 H         1 <0>         0.0793
     47 H11        -1.5991   -3.0289    1.8177 H         1 <0>         0.0735
     48 H12        -1.0732   -2.2632   -0.4573 H         1 <0>         0.0695
     49 H13         0.0051   -1.4355    0.6958 H         1 <0>         0.0998
     50 H14        -4.8395   -5.1885    0.6470 H         1 <0>         0.1010
     51 H15        -3.1449   -4.6805    0.9236 H         1 <0>         0.0949
     52 H16        -5.5724   -3.9126    4.1401 H         1 <0>         0.0910
     53 H17        -6.4510   -4.6768    2.7794 H         1 <0>         0.0847
     54 H18        -3.4160   -6.6560    4.9900 H         1 <0>         0.0928
     55 H19        -3.2872   -4.8973    4.7429 H         1 <0>         0.1193
     56 H20        -4.3333   -5.4308    6.9358 H         1 <0>         0.1418
     57 H21        -5.4674   -4.5712    5.8670 H         1 <0>         0.1364
     58 H22        -5.3526   -7.4828    6.2081 H         1 <0>         0.4247
     59 H23        -7.4558   -7.4590    5.0443 H         1 <0>         0.1399
     60 H24        -7.2225   -5.7111    4.8041 H         1 <0>         0.1356
     61 H25        -6.4819   -6.9716    2.8078 H         1 <0>         0.1242
     62 H26        -5.3570   -7.9164    3.8141 H         1 <0>         0.0932
     63 H27        -3.0980   -8.6183    2.7894 H         1 <0>         0.3994
     64 H28        -5.2213  -10.0021    1.5432 H         1 <0>         0.0816
     65 H29        -3.9127   -9.7949    0.3546 H         1 <0>         0.0805
     66 H30        -3.5549  -11.0239    3.1246 H         1 <0>         0.0942
     67 H31        -1.7387  -10.8263    0.6768 H         1 <0>         0.0945
     68 H32        -1.5168   -9.9724    2.2236 H         1 <0>         0.1085
     69 H33        -0.0880  -11.9968    2.1113 H         1 <0>         0.1335
     70 H34        -1.3108  -12.1473    3.3952 H         1 <0>         0.1277
     71 H35        -3.4377  -14.4379    1.6024 H         1 <0>         0.1367
     72 H36        -3.1968  -13.5217    3.1087 H         1 <0>         0.1289
     73 H37        -4.9483  -12.4731    1.7022 H         1 <0>         0.1168
     74 H38        -3.7814  -12.3149    0.3664 H         1 <0>         0.0949
     75 H39        -0.9748  -14.5431    3.2604 H         1 <0>         0.1392
     76 H40         0.6755  -13.6996    0.8806 H         1 <0>         0.0863
     77 H41         1.1765  -13.9412    2.5837 H         1 <0>         0.0973
     78 H42         1.8689  -15.7868    0.7443 H         1 <0>         0.0903
     79 H43         1.2515  -16.3387    2.3364 H         1 <0>         0.0845
     80 H44        -0.2796  -16.0609   -0.3083 H         1 <0>         0.0783
     81 H45        -0.2459  -17.4578    0.8131 H         1 <0>         0.0895
     82 H46        -1.7505  -16.4634    2.2937 H         1 <0>         0.1035
     83 H47        -2.2419  -15.5366    0.8478 H         1 <0>         0.0848
     84 H48        -1.5625  -13.2484    0.6875 H         1 <0>         0.4221
     85 H49        -6.4417   -6.4902    6.9417 H         1 <0>         0.4371
@<TRIPOS>BOND
     1    1    2 1
     2    1   38 1
     3    1   39 1
     4    1   40 1
     5    2    3 2
     6    2    4 am
     7    4    9 1
     8    4    5 1
     9    5    6 1
    10    5   41 1
    11    5   42 1
    12    6    7 1
    13    6   43 1
    14    6   44 1
    15    7    8 1
    16    7   10 1
    17    7   45 1
    18    8    9 1
    19    8   46 1
    20    8   47 1
    21    9   48 1
    22    9   49 1
    23   10   11 2
    24   10   12 am
    25   12   17 1
    26   12   13 1
    27   13   14 1
    28   13   50 1
    29   13   51 1
    30   14   15 1
    31   14   16 1
    32   14   23 1
    33   16   22 1
    34   16   17 1
    35   16   18 1
    36   17   52 1
    37   17   53 1
    38   18   19 1
    39   18   54 1
    40   18   55 1
    41   19   20 1
    42   19   56 1
    43   19   57 1
    44   20   21 1
    45   20   58 1
    46   20   85 1
    47   21   22 1
    48   21   59 1
    49   21   60 1
    50   22   61 1
    51   22   62 1
    52   23   24 2
    53   23   25 am
    54   25   26 1
    55   25   63 1
    56   26   27 1
    57   26   64 1
    58   26   65 1
    59   27   32 1
    60   27   28 1
    61   27   66 1
    62   28   29 1
    63   28   67 1
    64   28   68 1
    65   29   30 1
    66   29   69 1
    67   29   70 1
    68   30   31 1
    69   30   33 1
    70   30   84 1
    71   31   32 1
    72   31   71 1
    73   31   72 1
    74   32   73 1
    75   32   74 1
    76   33   37 1
    77   33   34 1
    78   33   75 1
    79   34   35 1
    80   34   76 1
    81   34   77 1
    82   35   36 1
    83   35   78 1
    84   35   79 1
    85   36   37 1
    86   36   80 1
    87   36   81 1
    88   37   82 1
    89   37   83 1
