@<TRIPOS>MOLECULE
ZINC09329887
   51    54     0     0     0
SMALL
USER_CHARGES

@<TRIPOS>ATOM
      1 C1         -3.8872    2.0799   -1.6789 C.3       1 <0>        -0.1462
      2 C2         -2.7120    1.8094   -0.7373 C.3       1 <0>        -0.0826
      3 C3         -2.7090    0.3551   -0.3425 C.ar      1 <0>        -0.0712
      4 C4         -3.3198   -0.0442    0.8304 C.ar      1 <0>        -0.1181
      5 C5         -3.3175   -1.3784    1.1933 C.ar      1 <0>        -0.1051
      6 C6         -2.7046   -2.3173    0.3836 C.ar      1 <0>        -0.1189
      7 C7         -2.0927   -1.9246   -0.7904 C.ar      1 <0>        -0.0674
      8 C8         -2.0974   -0.5858   -1.1602 C.ar      1 <0>         0.1303
      9 N1         -1.4829   -0.1854   -2.3518 N.am      1 <0>        -0.6725
     10 C9         -2.0762   -0.4404   -3.5348 C.2       1 <0>         0.5404
     11 O1         -3.1805   -0.9412   -3.5639 O.2       1 <0>        -0.5027
     12 C10        -1.3675   -0.1034   -4.8213 C.3       1 <0>        -0.1604
     13 S1         -2.4168   -0.5627   -6.2279 S.3       1 <0>         0.1203
     14 C11        -1.4610   -0.1120   -7.6379 C.2       1 <0>         0.1830
     15 N2         -0.2616    0.4259   -7.6269 N.2       1 <0>        -0.2848
     16 N3          0.1439    0.6265   -8.8297 N.2       1 <0>        -0.2230
     17 C12        -0.7723    0.2288   -9.6840 C.2       1 <0>         0.2107
     18 N4         -1.8262   -0.2620   -8.9457 N.pl3     1 <0>        -0.3070
     19 N5         -2.9939   -0.7870   -9.4217 N.3       1 <0>        -0.5797
     20 C13        -0.6857    0.2905  -11.1535 C.2       1 <0>         0.1453
     21 C14         0.3759    0.7715  -11.8930 C.2       1 <0>        -0.1744
     22 C15         0.0453    0.6467  -13.2415 C.2       1 <0>         0.0597
     23 N6         -1.1525    0.1187  -13.3303 N.2       1 <0>        -0.2421
     24 N7         -1.6374   -0.1226  -12.0398 N.pl3     1 <0>        -0.4804
     25 H1         -2.4971   -0.5117  -11.8156 H         1 <0>         0.4321
     26 C16         1.1864    1.1644  -14.0916 C.3       1 <0>        -0.0362
     27 C17         2.0507    2.0137  -13.1357 C.3       1 <0>        -0.1179
     28 C18         1.7543    1.3797  -11.7601 C.3       1 <0>        -0.0456
     29 C19        -1.4248   -2.9483   -1.6719 C.3       1 <0>        -0.1159
     30 H2         -3.8893    3.1319   -1.9644 H         1 <0>         0.0582
     31 H3         -3.7878    1.4615   -2.5710 H         1 <0>         0.0559
     32 H4         -4.8217    1.8391   -1.1721 H         1 <0>         0.0568
     33 H5         -1.7775    2.0502   -1.2441 H         1 <0>         0.0695
     34 H6         -2.8113    2.4279    0.1548 H         1 <0>         0.0743
     35 H7         -3.7992    0.6866    1.4648 H         1 <0>         0.1264
     36 H8         -3.7951   -1.6879    2.1111 H         1 <0>         0.1262
     37 H9         -2.7043   -3.3586    0.6700 H         1 <0>         0.1267
     38 H10        -0.6299    0.2757   -2.3265 H         1 <0>         0.4109
     39 H11        -1.1637    0.9669   -4.8543 H         1 <0>         0.1294
     40 H12        -0.4282   -0.6539   -4.8737 H         1 <0>         0.1306
     41 H13        -3.6927   -0.0684   -9.5376 H         1 <0>         0.3735
     42 H14        -2.8408   -1.2851  -10.2857 H         1 <0>         0.3689
     43 H15         1.7683    0.3333  -14.4899 H         1 <0>         0.0947
     44 H16         0.8028    1.7819  -14.9037 H         1 <0>         0.0872
     45 H17         3.1078    1.9209  -13.3848 H         1 <0>         0.0886
     46 H18         1.7377    3.0576  -13.1557 H         1 <0>         0.0778
     47 H19         1.7573    2.1436  -10.9827 H         1 <0>         0.0827
     48 H20         2.4887    0.6064  -11.5344 H         1 <0>         0.0842
     49 H21        -2.1679   -3.4056   -2.3251 H         1 <0>         0.0751
     50 H22        -0.6589   -2.4627   -2.2767 H         1 <0>         0.0626
     51 H23        -0.9643   -3.7171   -1.0513 H         1 <0>         0.0702
@<TRIPOS>BOND
     1    1    2 1
     2    1   30 1
     3    1   31 1
     4    1   32 1
     5    2    3 1
     6    2   33 1
     7    2   34 1
     8    3    8 ar
     9    3    4 ar
    10    4    5 ar
    11    4   35 1
    12    5    6 ar
    13    5   36 1
    14    6    7 ar
    15    6   37 1
    16    7    8 ar
    17    7   29 1
    18    8    9 1
    19    9   10 am
    20    9   38 1
    21   10   11 2
    22   10   12 1
    23   12   13 1
    24   12   39 1
    25   12   40 1
    26   13   14 1
    27   14   18 1
    28   14   15 2
    29   15   16 1
    30   16   17 2
    31   17   18 1
    32   17   20 1
    33   18   19 1
    34   19   41 1
    35   19   42 1
    36   20   24 1
    37   20   21 2
    38   21   28 1
    39   21   22 1
    40   22   23 2
    41   22   26 1
    42   23   24 1
    43   24   25 1
    44   26   27 1
    45   26   43 1
    46   26   44 1
    47   27   28 1
    48   27   45 1
    49   27   46 1
    50   28   47 1
    51   28   48 1
    52   29   49 1
    53   29   50 1
    54   29   51 1
