@<TRIPOS>MOLECULE
ZINC47895693
   24    25     0     0     0
SMALL
USER_CHARGES

@<TRIPOS>ATOM
      1 C1         -0.0184    1.5028    0.0103 C.3       1 <0>        -0.1165
      2 C2          0.0021   -0.0041    0.0020 C.2       1 <0>         0.0752
      3 C3          0.0054   -0.6532   -1.1620 C.2       1 <0>        -0.1908
      4 S1          0.0318   -2.3579   -0.6302 S.3       1 <0>         0.1455
      5 C4          0.0361   -2.0538    1.1235 C.2       1 <0>         0.3351
      6 N1          0.0227   -0.6863    1.1948 N.am      1 <0>        -0.4761
      7 C5          0.0267   -0.1416    2.4480 C.2       1 <0>         0.5292
      8 O1          0.0107    1.0713    2.5873 O.2       1 <0>        -0.5124
      9 C6          0.0487   -0.9730    3.5681 C.2       1 <0>        -0.2835
     10 C7          0.0663   -2.3417    3.4042 C.2       1 <0>         0.2238
     11 N2          0.0522   -2.8403    2.1707 N.2       1 <0>        -0.4867
     12 C8          0.0907   -3.2571    4.6011 C.3       1 <0>        -0.0450
     13 S2         -1.5489   -3.9991    4.8284 S.3       1 <0>        -0.2271
     14 C9         -1.3529   -5.0581    6.2881 C.3       1 <0>        -0.1252
     15 H1          1.0042    1.8801    0.0026 H         1 <0>         0.0857
     16 H2         -0.5455    1.8639   -0.8728 H         1 <0>         0.0859
     17 H3         -0.5286    1.8543    0.9071 H         1 <0>         0.1047
     18 H4         -0.0054   -0.2528   -2.1650 H         1 <0>         0.2217
     19 H5          0.0524   -0.5458    4.5601 H         1 <0>         0.1674
     20 H6          0.8270   -4.0448    4.4411 H         1 <0>         0.1116
     21 H7          0.3573   -2.6857    5.4902 H         1 <0>         0.1100
     22 H8         -1.0559   -4.4488    7.1417 H         1 <0>         0.0798
     23 H9         -2.2986   -5.5538    6.5070 H         1 <0>         0.1071
     24 H10        -0.5863   -5.8079    6.0927 H         1 <0>         0.0806
@<TRIPOS>BOND
     1    1    2 1
     2    1   15 1
     3    1   16 1
     4    1   17 1
     5    2    6 1
     6    2    3 2
     7    3    4 1
     8    3   18 1
     9    4    5 1
    10    5   11 2
    11    5    6 1
    12    6    7 am
    13    7    8 2
    14    7    9 1
    15    9   10 2
    16    9   19 1
    17   10   11 1
    18   10   12 1
    19   12   13 1
    20   12   20 1
    21   12   21 1
    22   13   14 1
    23   14   22 1
    24   14   23 1
    25   14   24 1
