@<TRIPOS>MOLECULE
ZINC47350852
   30    30     0     0     0
SMALL
USER_CHARGES

@<TRIPOS>ATOM
      1 C1         -0.0184    1.5028    0.0103 C.3       1 <0>        -0.0598
      2 C2          0.0021   -0.0041    0.0020 C.2       1 <0>        -0.2343
      3 C3         -1.0253   -0.8593    0.0018 C.2       1 <0>         0.0483
      4 N1         -0.7316   -2.1885   -0.0067 N.pl3     1 <0>        -0.6054
      5 H1         -1.4401   -2.8510   -0.0076 H         1 <0>         0.4219
      6 C4          0.5752   -2.5707   -0.0144 C.2       1 <0>         0.3796
      7 N2          1.0761   -3.8041   -0.0239 N.2       1 <0>        -0.6214
      8 C5          2.3994   -3.9876   -0.0304 C.2       1 <0>         0.6818
      9 O1          3.1481   -3.0257   -0.0277 O.2       1 <0>        -0.5950
     10 N3          2.9066   -5.2362   -0.0400 N.am      1 <0>        -0.7047
     11 C6          4.3577   -5.4375   -0.0472 C.3       1 <0>         0.1195
     12 C7          4.6601   -6.9138   -0.0573 C.2       1 <0>         0.5200
     13 O2          3.7528   -7.7186   -0.0584 O.2       1 <0>        -0.5221
     14 N4          5.9387   -7.3397   -0.0652 N.am      1 <0>        -0.7268
     15 C8          6.2327   -8.7749   -0.0750 C.3       1 <0>         0.0779
     16 C9          7.7482   -8.9850   -0.0825 C.3       1 <0>         0.4491
     17 F1          8.3054   -8.4027    1.0610 F         1 <0>        -0.1767
     18 F2          8.0289  -10.3556   -0.0919 F         1 <0>        -0.1704
     19 F3          8.2959   -8.3890   -1.2235 F         1 <0>        -0.1767
     20 S1          1.4028   -1.1071   -0.0179 S.3       1 <0>         0.1929
     21 H2          1.0042    1.8801    0.0026 H         1 <0>         0.0770
     22 H3         -0.5455    1.8639   -0.8728 H         1 <0>         0.0800
     23 H4         -0.5286    1.8543    0.9071 H         1 <0>         0.0800
     24 H5         -2.0472   -0.5098    0.0084 H         1 <0>         0.1880
     25 H6          2.3108   -6.0017   -0.0422 H         1 <0>         0.4168
     26 H7          4.7845   -4.9731   -0.9362 H         1 <0>         0.1050
     27 H8          4.7918   -4.9838    0.8437 H         1 <0>         0.1050
     28 H9          6.6644   -6.6960   -0.0643 H         1 <0>         0.4130
     29 H10         5.8059   -9.2393    0.8140 H         1 <0>         0.1187
     30 H11         5.7985   -9.2286   -0.9659 H         1 <0>         0.1187
@<TRIPOS>BOND
     1    1    2 1
     2    1   21 1
     3    1   22 1
     4    1   23 1
     5    2   20 1
     6    2    3 2
     7    3    4 1
     8    3   24 1
     9    4    5 1
    10    4    6 1
    11    6    7 2
    12    6   20 1
    13    7    8 1
    14    8    9 2
    15    8   10 am
    16   10   11 1
    17   10   25 1
    18   11   12 1
    19   11   26 1
    20   11   27 1
    21   12   13 2
    22   12   14 am
    23   14   15 1
    24   14   28 1
    25   15   16 1
    26   15   29 1
    27   15   30 1
    28   16   17 1
    29   16   18 1
    30   16   19 1
