@<TRIPOS>MOLECULE
ZINC20029067
   43    45     0     0     0
SMALL
USER_CHARGES
3-[4-[(5E)-5-[(3-nitrophenyl)methylene]-4-oxo-thiazol-2-yl]piperazin-1-yl]propanenitrile
@<TRIPOS>ATOM
      1 C1          1.1272    6.4755   11.2840 C.ar      1 <0>        -0.1260
      2 C2          0.8415    6.7635    9.9662 C.ar      1 <0>        -0.0391
      3 C3          0.1536    5.8299    9.1835 C.ar      1 <0>        -0.0832
      4 C4         -0.2436    4.6123    9.7476 C.ar      1 <0>         0.0143
      5 C5          0.0545    4.3377   11.0651 C.ar      1 <0>        -0.0487
      6 C6          0.7356    5.2669   11.8328 C.ar      1 <0>        -0.0392
      7 N1         -0.3601    3.0484   11.6624 N.pl3     1 <0>         0.0291
      8 O1         -0.1020    2.8062   12.8278 O.2       1 <0>        -0.1602
      9 O2         -0.9593    2.2297   10.9885 O.3       1 <0>        -0.1522
     10 C7         -0.1556    6.1289    7.7777 C.2       1 <0>         0.0435
     11 C8         -0.0803    5.1491    6.8439 C.2       1 <0>        -0.2235
     12 C9          0.4412    3.7650    6.9586 C.2       1 <0>         0.5441
     13 O3          0.8962    3.3327    8.0051 O.2       1 <0>        -0.4553
     14 N2          0.3854    3.0300    5.8701 N.2       1 <0>        -0.6603
     15 C10        -0.1061    3.4866    4.7289 C.2       1 <0>         0.4987
     16 S1         -0.5750    5.1637    5.1253 S.3       1 <0>        -0.0532
     17 N3         -0.2215    2.8327    3.5316 N.pl3     1 <0>        -0.5254
     18 C11         0.2276    1.4398    3.3858 C.3       1 <0>         0.1141
     19 C12         1.1510    1.3512    2.1660 C.3       1 <0>         0.0392
     20 N4          0.4629    1.9079    0.9936 N.3       1 <0>        -0.5354
     21 C13         0.1661    3.3348    1.1777 C.3       1 <0>         0.0301
     22 C14        -0.7976    3.5047    2.3569 C.3       1 <0>         0.1118
     23 C15         1.2449    1.6865   -0.2301 C.3       1 <0>         0.0572
     24 C16         0.3964    2.0498   -1.4503 C.3       1 <0>        -0.0259
     25 C17         1.1800    1.8279   -2.6765 C.1       1 <0>         0.2009
     26 N5          1.7848    1.6566   -3.6228 N.1       1 <0>        -0.4266
     27 H1          1.6578    7.1953   11.8897 H         1 <0>         0.1528
     28 H2          1.1475    7.7073    9.5395 H         1 <0>         0.1486
     29 H3         -0.7785    3.8881    9.1511 H         1 <0>         0.1541
     30 H4          0.9621    5.0476   12.8658 H         1 <0>         0.1561
     31 H5         -0.4481    7.1477    7.4836 H         1 <0>         0.1612
     32 H6          0.7717    1.1333    4.2913 H         1 <0>         0.1132
     33 H7         -0.6455    0.7860    3.2437 H         1 <0>         0.0973
     34 H8          2.0700    1.9239    2.3595 H         1 <0>         0.0489
     35 H9          1.4080    0.2986    1.9763 H         1 <0>         0.1045
     36 H10         1.0991    3.8798    1.3837 H         1 <0>         0.0512
     37 H11        -0.2974    3.7339    0.2634 H         1 <0>         0.1073
     38 H12        -1.7701    3.0509    2.1152 H         1 <0>         0.1048
     39 H13        -0.9363    4.5735    2.5772 H         1 <0>         0.0969
     40 H14         2.1456    2.3175   -0.2088 H         1 <0>         0.0493
     41 H15         1.5398    0.6285   -0.2904 H         1 <0>         0.0927
     42 H16        -0.5044    1.4188   -1.4715 H         1 <0>         0.1228
     43 H17         0.1015    3.1078   -1.3900 H         1 <0>         0.1097
@<TRIPOS>BOND
     1    1    6 ar
     2    1    2 ar
     3    1   27 1
     4    2    3 ar
     5    2   28 1
     6    3    4 ar
     7    3   10 1
     8    4    5 ar
     9    4   29 1
    10    5    6 ar
    11    5    7 1
    12    6   30 1
    13    7    8 2
    14    7    9 1
    15   10   11 2
    16   10   31 1
    17   11   16 1
    18   11   12 1
    19   12   13 2
    20   12   14 1
    21   14   15 2
    22   15   16 1
    23   15   17 1
    24   17   22 1
    25   17   18 1
    26   18   19 1
    27   18   32 1
    28   18   33 1
    29   19   20 1
    30   19   34 1
    31   19   35 1
    32   20   21 1
    33   20   23 1
    34   21   22 1
    35   21   36 1
    36   21   37 1
    37   22   38 1
    38   22   39 1
    39   23   24 1
    40   23   40 1
    41   23   41 1
    42   24   25 1
    43   24   42 1
    44   24   43 1
    45   25   26 3
