@<TRIPOS>MOLECULE
ZINC33838867
   56    58     0     0     0
SMALL
USER_CHARGES
(4R)-4-[(1R,4S,5E,9Z,13S,15R)-15-hydroxy-4,9-dimethyl-11-oxo-12,16-dioxabicyclo[11.3.1]heptadeca-5,9-dien-15-yl]thiazolidin-2-one
@<TRIPOS>ATOM
      1 C1          0.2801    6.7727    3.2169 C.3       1 <0>        -0.1498
      2 C2          1.0507    5.6766    3.9420 C.3       1 <0>        -0.0605
      3 H1          1.9948    6.1171    4.2951 H         1 <0>         0.0774
      4 C3          0.2967    5.1564    5.1594 C.3       1 <0>        -0.1109
      5 C4         -1.1690    4.8675    4.9022 C.3       1 <0>        -0.1201
      6 C5         -1.3708    3.4473    4.3611 C.3       1 <0>         0.1074
      7 H2         -0.5391    2.7811    4.6338 H         1 <0>         0.0742
      8 C6         -1.5405    3.4964    2.8466 C.3       1 <0>        -0.1770
      9 C7         -1.8339    2.0919    2.3109 C.3       1 <0>         0.1109
     10 H3         -0.9828    1.4078    2.4437 H         1 <0>         0.0910
     11 C8         -3.0833    1.5488    3.0077 C.3       1 <0>        -0.1391
     12 C9         -2.8899    1.5878    4.5240 C.3       1 <0>         0.3021
     13 O1         -2.5570    2.9025    4.9561 O.3       1 <0>        -0.3885
     14 C10        -4.1926    1.1512    5.2043 C.3       1 <0>         0.1197
     15 H4         -5.0546    1.7792    4.9348 H         1 <0>         0.1131
     16 C11        -3.9912    1.1926    6.7330 C.3       1 <0>        -0.0816
     17 S1         -4.3398   -0.5523    7.1742 S.3       1 <0>        -0.1929
     18 C12        -4.6922   -1.1942    5.5505 C.2       1 <0>         0.5684
     19 O2         -4.9923   -2.3370    5.2621 O.2       1 <0>        -0.4693
     20 N1         -4.5572   -0.1569    4.7121 N.am      1 <0>        -0.7356
     21 O3         -1.8465    0.6824    4.8931 O.3       1 <0>        -0.5866
     22 O4         -2.0863    2.2018    0.8898 O.3       1 <0>        -0.3456
     23 C13        -1.2334    1.8425   -0.0337 C.2       1 <0>         0.5148
     24 O5         -1.5320    2.2393   -1.1532 O.2       1 <0>        -0.4862
     25 C14        -0.0126    1.0786    0.0080 C.2       1 <0>        -0.2459
     26 C15         1.1732    1.7008   -0.0000 C.2       1 <0>        -0.0431
     27 C16         1.2461    3.2015    0.0838 C.3       1 <0>        -0.0977
     28 C17         2.4092    3.6162    0.9895 C.3       1 <0>        -0.0893
     29 C18         1.9962    4.7666    1.8698 C.2       1 <0>        -0.1608
     30 C19         1.3811    4.5435    3.0030 C.2       1 <0>        -0.1532
     31 C20         2.4269    0.8702   -0.1317 C.3       1 <0>        -0.1297
     32 H5          0.0508    7.5866    3.9205 H         1 <0>         0.0602
     33 H6         -0.6573    6.3587    2.8170 H         1 <0>         0.0590
     34 H7          0.8904    7.1642    2.3897 H         1 <0>         0.0584
     35 H8          0.7565    4.2177    5.5019 H         1 <0>         0.0667
     36 H9          0.3429    5.9030    5.9659 H         1 <0>         0.0709
     37 H10        -1.7327    4.9672    5.8415 H         1 <0>         0.0832
     38 H11        -1.5594    5.5822    4.1627 H         1 <0>         0.0809
     39 H12        -2.3769    4.1642    2.5928 H         1 <0>         0.0904
     40 H13        -0.6161    3.8752    2.3861 H         1 <0>         0.0986
     41 H14        -3.9522    2.1663    2.7362 H         1 <0>         0.1067
     42 H15        -3.2580    0.5102    2.6902 H         1 <0>         0.0919
     43 H16        -2.9614    1.5066    6.9588 H         1 <0>         0.1222
     44 H17        -4.6985    1.9087    7.1768 H         1 <0>         0.1278
     45 H18        -4.7280   -0.3119    3.6366 H         1 <0>         0.4330
     46 H19        -1.5622    0.5723    5.9500 H         1 <0>         0.4151
     47 H20        -0.0571   -0.0198    0.0465 H         1 <0>         0.1522
     48 H21         1.4030    3.6177   -0.9223 H         1 <0>         0.0909
     49 H22         0.3053    3.5917    0.4993 H         1 <0>         0.0706
     50 H23         2.7028    2.7654    1.6219 H         1 <0>         0.0746
     51 H24         3.2642    3.9249    0.3701 H         1 <0>         0.0764
     52 H25         2.2140    5.7982    1.5560 H         1 <0>         0.1134
     53 H26         1.0975    3.5180    3.2823 H         1 <0>         0.1078
     54 H27         3.3068    1.5303   -0.1212 H         1 <0>         0.0749
     55 H28         2.3988    0.3116   -1.0789 H         1 <0>         0.0807
     56 H29         2.4886    0.1636    0.7090 H         1 <0>         0.0779
@<TRIPOS>BOND
     1    1    2 1
     2    1   32 1
     3    1   33 1
     4    1   34 1
     5    2    3 1
     6    2   30 1
     7    2    4 1
     8    4    5 1
     9    4   35 1
    10    4   36 1
    11    5    6 1
    12    5   37 1
    13    5   38 1
    14    6    7 1
    15    6   13 1
    16    6    8 1
    17    8    9 1
    18    8   39 1
    19    8   40 1
    20    9   10 1
    21    9   11 1
    22    9   22 1
    23   11   12 1
    24   11   41 1
    25   11   42 1
    26   12   13 1
    27   12   14 1
    28   12   21 1
    29   14   15 1
    30   14   20 1
    31   14   16 1
    32   16   17 1
    33   16   43 1
    34   16   44 1
    35   17   18 1
    36   18   19 2
    37   18   20 am
    38   20   45 1
    39   21   46 1
    40   22   23 1
    41   23   24 2
    42   23   25 1
    43   25   26 2
    44   25   47 1
    45   26   27 1
    46   26   31 1
    47   27   28 1
    48   27   48 1
    49   27   49 1
    50   28   29 1
    51   28   50 1
    52   28   51 1
    53   29   30 2
    54   29   52 1
    55   30   53 1
    56   31   54 1
    57   31   55 1
    58   31   56 1
