@<TRIPOS>MOLECULE
ZINC63742862
   57    60     0     0     0
SMALL
USER_CHARGES

@<TRIPOS>ATOM
      1 C1          0.9958    1.5650   -0.0466 C.3       1 <0>         0.0637
      2 N1          0.7896    0.1166    0.0302 N.pl3     1 <0>        -0.9382
      3 C2          0.9557   -0.5489    1.2470 C.ar      1 <0>         0.1673
      4 C3          1.3062   -1.8929    1.2631 C.ar      1 <0>        -0.1646
      5 C4          1.4701   -2.5478    2.4680 C.ar      1 <0>        -0.0878
      6 C5          1.2853   -1.8671    3.6574 C.ar      1 <0>        -0.1393
      7 C6          0.9364   -0.5290    3.6449 C.ar      1 <0>        -0.0841
      8 C7          0.7765    0.1334    2.4437 C.ar      1 <0>        -0.1417
      9 S1          0.3595   -0.7316   -1.3254 S.o2      1 <0>         2.6850
     10 O1         -0.2812   -1.9178   -0.8761 O.2       1 <0>        -0.9365
     11 O2         -0.2747    0.1927   -2.1987 O.2       1 <0>        -0.9304
     12 C8          1.8496   -1.2342   -2.1201 C.ar      1 <0>        -0.6568
     13 C9          2.5108   -0.3607   -2.9643 C.ar      1 <0>        -0.0133
     14 C10         3.6806   -0.7511   -3.5895 C.ar      1 <0>        -0.1120
     15 C11         4.1927   -2.0155   -3.3725 C.ar      1 <0>        -0.0592
     16 C12         3.5313   -2.8948   -2.5255 C.ar      1 <0>         0.1043
     17 C13         2.3591   -2.4977   -1.8949 C.ar      1 <0>        -0.0359
     18 N2          4.0471   -4.1765   -2.3039 N.am      1 <0>        -0.6494
     19 C14         5.3803   -4.3738   -2.2935 C.2       1 <0>         0.5328
     20 O3          6.1341   -3.4277   -2.3818 O.2       1 <0>        -0.4863
     21 C15         5.9344   -5.7700   -2.1721 C.3       1 <0>        -0.1981
     22 S2          7.7472   -5.7045   -2.1877 S.3       1 <0>         0.1018
     23 C16         8.2504   -7.4407   -2.0358 C.3       1 <0>         0.2169
     24 H1          9.3376   -7.5171   -2.0474 H         1 <0>         0.2627
     25 N3          7.6783   -8.2288   -3.1340 N.pl3     1 <0>        -0.4552
     26 C17         6.9129   -9.1401   -2.6057 C.ar      1 <0>         0.3222
     27 C18         6.0885  -10.2042   -3.1980 C.ar      1 <0>        -0.0976
     28 C19         5.3805  -11.0245   -2.3993 C.ar      1 <0>        -0.0322
     29 C20         5.4019  -10.8933   -0.9481 C.ar      1 <0>         0.2973
     30 C21         6.1366   -9.9382   -0.3275 C.ar      1 <0>        -0.2272
     31 C22         6.9361   -9.0052   -1.1242 C.ar      1 <0>         0.3109
     32 N4          7.7184   -8.0125   -0.7928 N.pl3     1 <0>        -0.5085
     33 O4          4.6658  -11.7502   -0.1978 O.3       1 <0>        -0.2354
     34 C23         3.9079  -12.7389   -0.8979 C.3       1 <0>        -0.0112
     35 H2          2.0393    1.7712   -0.2848 H         1 <0>         0.0698
     36 H3          0.3562    1.9823   -0.8244 H         1 <0>         0.0975
     37 H4          0.7454    2.0190    0.9121 H         1 <0>         0.0938
     38 H5          1.4499   -2.4253    0.3345 H         1 <0>         0.1198
     39 H6          1.7426   -3.5927    2.4812 H         1 <0>         0.1238
     40 H7          1.4134   -2.3817    4.5982 H         1 <0>         0.1275
     41 H8          0.7929   -0.0003    4.5757 H         1 <0>         0.1331
     42 H9          0.5084    1.1795    2.4347 H         1 <0>         0.1346
     43 H10         2.1123    0.6283   -3.1359 H         1 <0>         0.1506
     44 H11         4.1943   -0.0668   -4.2484 H         1 <0>         0.1480
     45 H12         5.1063   -2.3200   -3.8613 H         1 <0>         0.1416
     46 H13         1.8446   -3.1779   -1.2323 H         1 <0>         0.1483
     47 H14         3.4452   -4.9230   -2.1578 H         1 <0>         0.4174
     48 H15         5.5950   -6.2156   -1.2371 H         1 <0>         0.1361
     49 H16         5.5855   -6.3735   -3.0100 H         1 <0>         0.1328
     50 H17         6.0510  -10.3270   -4.2703 H         1 <0>         0.2151
     51 H18         4.7790  -11.8019   -2.8468 H         1 <0>         0.2097
     52 H19         6.1324   -9.8656    0.7500 H         1 <0>         0.2087
     53 H20         3.3670  -13.3569   -0.1812 H         1 <0>         0.1467
     54 H21         3.1978  -12.2484   -1.5635 H         1 <0>         0.0940
     55 H22         4.5810  -13.3657   -1.4829 H         1 <0>         0.0943
     56 H23         7.8404   -8.0948   -4.0809 H         1 <0>         0.4970
     57 H24         7.9124   -7.7091    0.1079 H         1 <0>         0.4960
@<TRIPOS>BOND
     1    1    2 1
     2    1   35 1
     3    1   36 1
     4    1   37 1
     5    2    3 1
     6    2    9 1
     7    3    8 ar
     8    3    4 ar
     9    4    5 ar
    10    4   38 1
    11    5    6 ar
    12    5   39 1
    13    6    7 ar
    14    6   40 1
    15    7    8 ar
    16    7   41 1
    17    8   42 1
    18    9   10 2
    19    9   11 2
    20    9   12 1
    21   12   17 ar
    22   12   13 ar
    23   13   14 ar
    24   13   43 1
    25   14   15 ar
    26   14   44 1
    27   15   16 ar
    28   15   45 1
    29   16   17 ar
    30   16   18 1
    31   17   46 1
    32   18   19 am
    33   18   47 1
    34   19   20 2
    35   19   21 1
    36   21   22 1
    37   21   48 1
    38   21   49 1
    39   22   23 1
    40   23   24 1
    41   23   32 1
    42   23   25 1
    43   25   26 2
    44   25   56 1
    45   26   31 ar
    46   26   27 ar
    47   27   28 ar
    48   27   50 1
    49   28   29 ar
    50   28   51 1
    51   29   30 ar
    52   29   33 1
    53   30   31 ar
    54   30   52 1
    55   31   32 2
    56   32   57 1
    57   33   34 1
    58   34   53 1
    59   34   54 1
    60   34   55 1
