@<TRIPOS>MOLECULE
ZINC54164016
   50    51     0     0     0
SMALL
USER_CHARGES

@<TRIPOS>ATOM
      1 C1          0.0281    2.3616   -1.4633 C.3       1 <0>        -0.1663
      2 C2          0.0811    1.0351   -0.7025 C.3       1 <0>         0.1529
      3 C3         -1.3410    0.5868   -0.3595 C.3       1 <0>        -0.1622
      4 N1          0.7254    0.0186   -1.5378 N.am      1 <0>        -0.7352
      5 C4          2.0690   -0.0864   -1.5554 C.2       1 <0>         0.7036
      6 O1          2.7462    0.6626   -0.8782 O.2       1 <0>        -0.5665
      7 N2          2.6618   -1.0216   -2.3238 N.am      1 <0>        -0.6866
      8 C5          4.0522   -1.0685   -2.4168 C.ar      1 <0>         0.1984
      9 C6          4.8329   -0.7583   -1.3077 C.ar      1 <0>        -0.1287
     10 C7          6.2060   -0.8041   -1.3960 C.ar      1 <0>        -0.0305
     11 C8          6.8155   -1.1626   -2.6014 C.ar      1 <0>        -0.1512
     12 C9          6.0283   -1.4736   -3.7135 C.ar      1 <0>        -0.0621
     13 C10         4.6558   -1.4310   -3.6169 C.ar      1 <0>        -0.1541
     14 C11         8.2872   -1.2123   -2.6999 C.2       1 <0>         0.5661
     15 O2          8.9708   -0.9411   -1.7316 O.2       1 <0>        -0.5355
     16 N3          8.8735   -1.5583   -3.8631 N.am      1 <0>        -0.5181
     17 N4         10.2706   -1.6054   -3.9565 N.am      1 <0>        -0.5182
     18 C12        10.8569   -1.9514   -5.1197 C.2       1 <0>         0.5641
     19 O3         10.1733   -2.2226   -6.0880 O.2       1 <0>        -0.5158
     20 C13        12.3282   -2.0010   -5.2181 C.ar      1 <0>        -0.1245
     21 C14        13.1174   -1.6954   -4.1054 C.ar      1 <0>        -0.1081
     22 C15        14.4908   -1.7423   -4.2012 C.ar      1 <0>        -0.0917
     23 C16        15.0974   -2.0920   -5.3967 C.ar      1 <0>        -0.1663
     24 C17        14.3296   -2.3973   -6.5073 C.ar      1 <0>         0.0956
     25 C18        12.9408   -2.3599   -6.4245 C.ar      1 <0>         0.1457
     26 O4         12.1842   -2.6641   -7.5097 O.3       1 <0>        -0.4638
     27 O5         14.9322   -2.7388   -7.6777 O.3       1 <0>        -0.3039
     28 C19        16.3610   -2.7620   -7.6891 C.3       1 <0>         0.0232
     29 H1          1.0412    2.6809   -1.7077 H         1 <0>         0.0617
     30 H2         -0.5433    2.2308   -2.3823 H         1 <0>         0.0565
     31 H3         -0.4513    3.1179   -0.8419 H         1 <0>         0.0683
     32 H4          0.6524    1.1659    0.2164 H         1 <0>         0.0913
     33 H5         -1.9124    0.4561   -1.2785 H         1 <0>         0.0617
     34 H6         -1.3033   -0.3581    0.1825 H         1 <0>         0.0627
     35 H7         -1.8204    1.3432    0.2619 H         1 <0>         0.0766
     36 H8          0.1851   -0.5790   -2.0780 H         1 <0>         0.3979
     37 H9          2.1212   -1.6621   -2.8121 H         1 <0>         0.4101
     38 H10         4.3612   -0.4809   -0.3766 H         1 <0>         0.1508
     39 H11         6.8114   -0.5628   -0.5348 H         1 <0>         0.1426
     40 H12         6.4963   -1.7511   -4.6465 H         1 <0>         0.1314
     41 H13         4.0468   -1.6756   -4.4747 H         1 <0>         0.1352
     42 H14         8.3282   -1.7746   -4.6355 H         1 <0>         0.4321
     43 H15        10.8159   -1.3890   -3.1841 H         1 <0>         0.4321
     44 H16        12.6504   -1.4222   -3.1708 H         1 <0>         0.1340
     45 H17        15.0978   -1.5050   -3.3400 H         1 <0>         0.1392
     46 H18        16.1749   -2.1261   -5.4625 H         1 <0>         0.1402
     47 H19        11.9771   -1.9040   -8.0704 H         1 <0>         0.3938
     48 H20        16.7425   -1.7714   -7.4414 H         1 <0>         0.0580
     49 H21        16.7185   -3.4833   -6.9543 H         1 <0>         0.0584
     50 H22        16.7118   -3.0490   -8.6804 H         1 <0>         0.1050
@<TRIPOS>BOND
     1    1    2 1
     2    1   29 1
     3    1   30 1
     4    1   31 1
     5    2    3 1
     6    2    4 1
     7    2   32 1
     8    3   33 1
     9    3   34 1
    10    3   35 1
    11    4    5 am
    12    4   36 1
    13    5    6 2
    14    5    7 am
    15    7    8 1
    16    7   37 1
    17    8   13 ar
    18    8    9 ar
    19    9   10 ar
    20    9   38 1
    21   10   11 ar
    22   10   39 1
    23   11   12 ar
    24   11   14 1
    25   12   13 ar
    26   12   40 1
    27   13   41 1
    28   14   15 2
    29   14   16 am
    30   16   17 1
    31   16   42 1
    32   17   18 am
    33   17   43 1
    34   18   19 2
    35   18   20 1
    36   20   25 ar
    37   20   21 ar
    38   21   22 ar
    39   21   44 1
    40   22   23 ar
    41   22   45 1
    42   23   24 ar
    43   23   46 1
    44   24   25 ar
    45   24   27 1
    46   25   26 1
    47   26   47 1
    48   27   28 1
    49   28   48 1
    50   28   49 1
    51   28   50 1
