@<TRIPOS>MOLECULE
ZINC39674261
   66    69     0     0     0
SMALL
USER_CHARGES

@<TRIPOS>ATOM
      1 C1          2.2007    2.0767   -5.3065 C.3       1 <0>        -0.1142
      2 C2          1.1964    2.1490   -4.1545 C.3       1 <0>        -0.0330
      3 H1          0.1982    2.3761   -4.5289 H         1 <0>         0.1397
      4 C3          1.1914    0.8525   -3.3641 C.2       1 <0>        -0.1643
      5 C4          1.5725    1.2215   -2.1393 C.2       1 <0>        -0.0018
      6 N1          1.8032    2.5521   -2.0887 N.2       1 <0>        -0.1578
      7 N2          1.6184    3.1476   -3.1575 N.2       1 <0>        -0.1423
      8 C5          1.7248    0.2817   -0.9711 C.3       1 <0>        -0.0981
      9 C6          0.8379   -0.5297   -3.8497 C.3       1 <0>         0.2131
     10 H2          0.8179   -1.2176   -3.0044 H         1 <0>         0.1106
     11 C7          1.8844   -0.9973   -4.8632 C.3       1 <0>        -0.1650
     12 N3         -0.4807   -0.5009   -4.4873 N.am      1 <0>        -0.7242
     13 C8         -1.2260   -1.6223   -4.5450 C.2       1 <0>         0.5241
     14 O1         -0.8050   -2.6554   -4.0690 O.2       1 <0>        -0.5126
     15 C9         -2.5825   -1.5927   -5.2009 C.3       1 <0>        -0.1135
     16 H3         -3.0603   -0.6264   -5.0393 H         1 <0>         0.1136
     17 C10        -3.4710   -2.7309   -4.6509 C.3       1 <0>         0.1161
     18 N4         -4.2453   -3.2014   -5.8235 N.am      1 <0>        -0.6197
     19 C11        -3.2752   -3.1666   -6.9440 C.3       1 <0>         0.0907
     20 C12        -2.4560   -1.8825   -6.7059 C.3       1 <0>        -0.0732
     21 C13        -3.0366   -0.7281   -7.5169 C.3       1 <0>        -0.1358
     22 C14        -2.8480   -1.0137   -9.0095 C.3       1 <0>        -0.0119
     23 N5         -1.4184   -1.1734   -9.3021 N.4       1 <0>        -0.5050
     24 C15        -0.8888   -2.3423   -8.5895 C.3       1 <0>        -0.0083
     25 C16        -0.9948   -2.1130   -7.0791 C.3       1 <0>        -0.1507
     26 C17        -5.5393   -3.5762   -5.8625 C.2       1 <0>         0.5855
     27 O2         -6.2399   -3.4459   -4.8774 O.2       1 <0>        -0.5095
     28 C18        -6.1060   -4.1448   -7.1012 C.ar      1 <0>        -0.1550
     29 C19        -5.2628   -4.7047   -8.0646 C.ar      1 <0>        -0.0708
     30 C20        -5.7954   -5.2346   -9.2186 C.ar      1 <0>        -0.1338
     31 C21        -7.1696   -5.2125   -9.4261 C.ar      1 <0>         0.1408
     32 C22        -8.0116   -4.6564   -8.4702 C.ar      1 <0>        -0.1936
     33 C23        -7.4874   -4.1297   -7.3110 C.ar      1 <0>        -0.0114
     34 O3         -7.6905   -5.7349  -10.5652 O.3       1 <0>        -0.3084
     35 C24        -9.1107   -5.6793  -10.7141 C.3       1 <0>         0.6048
     36 F1         -9.5306   -4.3451  -10.6861 F         1 <0>        -0.1618
     37 F2         -9.4744   -6.2571  -11.9352 F         1 <0>        -0.1231
     38 F3         -9.7172   -6.3812   -9.6670 F         1 <0>        -0.1588
     39 H4          3.1401    1.6594   -4.9438 H         1 <0>         0.0680
     40 H5          1.8018    1.4409   -6.0969 H         1 <0>         0.0714
     41 H6          2.3757    3.0782   -5.6994 H         1 <0>         0.0819
     42 H7          2.7434   -0.1054   -0.9466 H         1 <0>         0.0867
     43 H8          1.5171    0.8170   -0.0446 H         1 <0>         0.0865
     44 H9          1.0239   -0.5464   -1.0772 H         1 <0>         0.0783
     45 H10         2.8683   -1.0010   -4.3941 H         1 <0>         0.0766
     46 H11         1.6389   -2.0044   -5.2004 H         1 <0>         0.0706
     47 H12         1.8914   -0.3198   -5.7170 H         1 <0>         0.0642
     48 H13        -0.8174    0.3254   -4.8679 H         1 <0>         0.3988
     49 H14        -2.8537   -3.5373   -4.2548 H         1 <0>         0.1022
     50 H15        -4.1416   -2.3509   -3.8802 H         1 <0>         0.0991
     51 H16        -2.6278   -4.0430   -6.9141 H         1 <0>         0.0920
     52 H17        -3.7983   -3.1114   -7.8987 H         1 <0>         0.0955
     53 H18        -4.0994   -0.6273   -7.2972 H         1 <0>         0.1201
     54 H19        -2.5210    0.1960   -7.2553 H         1 <0>         0.0976
     55 H20        -3.3773   -1.9292   -9.2737 H         1 <0>         0.1329
     56 H21        -3.2472   -0.1829   -9.5915 H         1 <0>         0.1417
     57 H22        -1.2919   -1.3008  -10.2950 H         1 <0>         0.4353
     58 H23        -1.4643   -3.2263   -8.8638 H         1 <0>         0.1336
     59 H24         0.1562   -2.4907   -8.8617 H         1 <0>         0.1409
     60 H25        -0.4060   -1.2387   -6.8016 H         1 <0>         0.0995
     61 H26        -0.6180   -2.9888   -6.5508 H         1 <0>         0.1267
     62 H27        -4.1949   -4.7216   -7.9044 H         1 <0>         0.1462
     63 H28        -5.1444   -5.6676   -9.9637 H         1 <0>         0.1478
     64 H29        -9.0789   -4.6411   -8.6351 H         1 <0>         0.1463
     65 H30        -8.1426   -3.7015   -6.5669 H         1 <0>         0.1499
     66 H31        -0.9215   -0.3468   -9.0058 H         1 <0>         0.4282
@<TRIPOS>BOND
     1    1    2 1
     2    1   39 1
     3    1   40 1
     4    1   41 1
     5    2    3 1
     6    2    7 1
     7    2    4 1
     8    4    5 2
     9    4    9 1
    10    5    6 1
    11    5    8 1
    12    6    7 2
    13    8   42 1
    14    8   43 1
    15    8   44 1
    16    9   10 1
    17    9   11 1
    18    9   12 1
    19   11   45 1
    20   11   46 1
    21   11   47 1
    22   12   13 am
    23   12   48 1
    24   13   14 2
    25   13   15 1
    26   15   16 1
    27   15   20 1
    28   15   17 1
    29   17   18 1
    30   17   49 1
    31   17   50 1
    32   18   19 1
    33   18   26 am
    34   19   20 1
    35   19   51 1
    36   19   52 1
    37   20   25 1
    38   20   21 1
    39   21   22 1
    40   21   53 1
    41   21   54 1
    42   22   23 1
    43   22   55 1
    44   22   56 1
    45   23   24 1
    46   23   57 1
    47   23   66 1
    48   24   25 1
    49   24   58 1
    50   24   59 1
    51   25   60 1
    52   25   61 1
    53   26   27 2
    54   26   28 1
    55   28   33 ar
    56   28   29 ar
    57   29   30 ar
    58   29   62 1
    59   30   31 ar
    60   30   63 1
    61   31   32 ar
    62   31   34 1
    63   32   33 ar
    64   32   64 1
    65   33   65 1
    66   34   35 1
    67   35   36 1
    68   35   37 1
    69   35   38 1
