@<TRIPOS>MOLECULE
ZINC39677578
   62    66     0     0     0
SMALL
USER_CHARGES

@<TRIPOS>ATOM
      1 C1          0.0130   -3.3525    1.4870 C.3       1 <0>         0.0652
      2 N1          0.1030   -2.1228    0.6958 N.pl3     1 <0>        -0.4261
      3 C2          0.2755   -2.0395   -0.6355 C.2       1 <0>         0.2227
      4 N2          0.3071   -0.7793   -0.9865 N.2       1 <0>        -0.4932
      5 C3          0.1582   -0.0090    0.0914 C.2       1 <0>         0.0361
      6 C4          0.0209   -0.8299    1.1754 C.2       1 <0>        -0.1013
      7 C5         -0.1719   -0.4196    2.5713 C.2       1 <0>         0.6272
      8 O1         -0.1360   -1.2499    3.4600 O.2       1 <0>        -0.5374
      9 N3         -0.3889    0.8769    2.8687 N.am      1 <0>        -0.6133
     10 C6         -0.6060    2.0008    1.9275 C.3       1 <0>         0.0954
     11 C7         -1.7004    2.8633    2.5952 C.3       1 <0>        -0.1132
     12 H1         -2.6839    2.5927    2.2110 H         1 <0>         0.1125
     13 C8         -1.6011    2.5322    4.0937 C.3       1 <0>        -0.0712
     14 C9         -0.4707    1.4997    4.2116 C.3       1 <0>         0.1132
     15 C10        -2.9119    1.9292    4.5896 C.3       1 <0>        -0.1347
     16 C11        -2.8083    1.6614    6.0937 C.3       1 <0>        -0.0108
     17 N4         -2.5271    2.9183    6.7980 N.4       1 <0>        -0.5049
     18 C12        -1.2210    3.4438    6.3828 C.3       1 <0>        -0.0080
     19 C13        -1.2574    3.7867    4.8908 C.3       1 <0>        -0.1472
     20 C14        -1.4309    4.3273    2.3599 C.2       1 <0>         0.5192
     21 O2         -0.2891    4.7308    2.2946 O.2       1 <0>        -0.5199
     22 N5         -2.4588    5.1880    2.2221 N.am      1 <0>        -0.7218
     23 C15        -2.1969    6.6112    1.9934 C.3       1 <0>         0.1656
     24 C16        -3.5050    7.3501    1.8754 C.ar      1 <0>        -0.1167
     25 C17        -4.1073    7.4936    0.6393 C.ar      1 <0>        -0.0916
     26 C18        -5.3062    8.1716    0.5268 C.ar      1 <0>        -0.1122
     27 C19        -5.9086    8.7099    1.6543 C.ar      1 <0>         0.0660
     28 C20        -5.3043    8.5635    2.8972 C.ar      1 <0>         0.0479
     29 C21        -4.1032    7.8782    3.0037 C.ar      1 <0>        -0.0967
     30 O3         -5.8822    9.0771    4.0174 O.3       1 <0>        -0.3090
     31 C22        -6.8946   10.0704    3.8217 C.3       1 <0>         0.0195
     32 C23        -7.8470    9.5764    2.7244 C.3       1 <0>         0.0195
     33 O4         -7.0872    9.3786    1.5272 O.3       1 <0>        -0.3034
     34 H2         -1.0349   -3.6139    1.6341 H         1 <0>         0.0824
     35 H3          0.5187   -4.1615    0.9599 H         1 <0>         0.0955
     36 H4          0.4881   -3.1970    2.4555 H         1 <0>         0.1012
     37 H5          0.3729   -2.8791   -1.3077 H         1 <0>         0.2186
     38 H6          0.1444    1.0708    0.1050 H         1 <0>         0.1853
     39 H7          0.3110    2.5774    1.8062 H         1 <0>         0.1054
     40 H8         -0.9517    1.6277    0.9634 H         1 <0>         0.1070
     41 H9         -0.7177    0.7507    4.9640 H         1 <0>         0.0912
     42 H10         0.4686    1.9940    4.4596 H         1 <0>         0.0882
     43 H11        -3.7280    2.6262    4.3995 H         1 <0>         0.0971
     44 H12        -3.1029    0.9927    4.0655 H         1 <0>         0.1177
     45 H13        -3.7492    1.2458    6.4542 H         1 <0>         0.1393
     46 H14        -2.0025    0.9518    6.2815 H         1 <0>         0.1341
     47 H15        -3.2447    3.5929    6.5788 H         1 <0>         0.4279
     48 H16        -0.9921    4.3420    6.9563 H         1 <0>         0.1397
     49 H17        -0.4529    2.6920    6.5640 H         1 <0>         0.1333
     50 H18        -0.2817    4.1599    4.5793 H         1 <0>         0.1298
     51 H19        -2.0139    4.5506    4.7114 H         1 <0>         0.0972
     52 H20        -3.3720    4.8652    2.2744 H         1 <0>         0.4027
     53 H21        -1.6259    7.0145    2.8298 H         1 <0>         0.0811
     54 H22        -1.6268    6.7322    1.0723 H         1 <0>         0.0862
     55 H23        -3.6400    7.0753   -0.2400 H         1 <0>         0.1368
     56 H24        -5.7744    8.2829   -0.4401 H         1 <0>         0.1410
     57 H25        -3.6327    7.7609    3.9687 H         1 <0>         0.1324
     58 H26        -7.4478   10.2190    4.7491 H         1 <0>         0.1270
     59 H27        -6.4339   11.0090    3.5135 H         1 <0>         0.0822
     60 H28        -8.3031    8.6348    3.0301 H         1 <0>         0.0800
     61 H29        -8.6230   10.3214    2.5485 H         1 <0>         0.1281
     62 H30        -2.5198    2.7504    7.7929 H         1 <0>         0.4341
@<TRIPOS>BOND
     1    1    2 1
     2    1   34 1
     3    1   35 1
     4    1   36 1
     5    2    6 1
     6    2    3 1
     7    3    4 2
     8    3   37 1
     9    4    5 1
    10    5    6 2
    11    5   38 1
    12    6    7 1
    13    7    8 2
    14    7    9 am
    15    9   14 1
    16    9   10 1
    17   10   11 1
    18   10   39 1
    19   10   40 1
    20   11   12 1
    21   11   13 1
    22   11   20 1
    23   13   19 1
    24   13   14 1
    25   13   15 1
    26   14   41 1
    27   14   42 1
    28   15   16 1
    29   15   43 1
    30   15   44 1
    31   16   17 1
    32   16   45 1
    33   16   46 1
    34   17   18 1
    35   17   47 1
    36   17   62 1
    37   18   19 1
    38   18   48 1
    39   18   49 1
    40   19   50 1
    41   19   51 1
    42   20   21 2
    43   20   22 am
    44   22   23 1
    45   22   52 1
    46   23   24 1
    47   23   53 1
    48   23   54 1
    49   24   29 ar
    50   24   25 ar
    51   25   26 ar
    52   25   55 1
    53   26   27 ar
    54   26   56 1
    55   27   33 1
    56   27   28 ar
    57   28   29 ar
    58   28   30 1
    59   29   57 1
    60   30   31 1
    61   31   32 1
    62   31   58 1
    63   31   59 1
    64   32   33 1
    65   32   60 1
    66   32   61 1
