@<TRIPOS>MOLECULE
ZINC63552554
   58    62     0     0     0
SMALL
USER_CHARGES

@<TRIPOS>ATOM
      1 C1         -0.0163    1.3482    0.0095 C.ar      1 <0>        -0.1501
      2 C2          1.1658    2.1014    0.0022 C.ar      1 <0>         0.0544
      3 C3          2.3912    1.5352   -0.0125 C.ar      1 <0>        -0.2094
      4 C4          2.5288    0.1198   -0.0218 C.ar      1 <0>         0.3278
      5 N1          3.5868   -0.6543   -0.0369 N.pl3     1 <0>        -0.5844
      6 C5          3.1432   -2.0528   -0.0408 C.3       1 <0>         0.0601
      7 C6          1.6315   -2.0084   -0.0255 C.2       1 <0>         0.0709
      8 C7          1.2951   -0.6984   -0.0144 C.ar      1 <0>        -0.1675
      9 C8          0.0021   -0.0041    0.0020 C.ar      1 <0>        -0.0129
     10 C9          0.6905   -3.1856   -0.0239 C.3       1 <0>        -0.1054
     11 C10         0.4565   -3.6534   -1.4617 C.3       1 <0>         0.1255
     12 N2         -0.4583   -4.7977   -1.4602 N.am      1 <0>        -0.7375
     13 C11        -0.8107   -5.3803   -2.6233 C.2       1 <0>         0.5235
     14 O1         -0.3706   -4.9572   -3.6712 O.2       1 <0>        -0.5247
     15 C12        -1.7517   -6.5574   -2.6217 C.3       1 <0>        -0.1348
     16 C13        -1.9857   -7.0252   -4.0595 C.3       1 <0>        -0.0137
     17 C14        -2.9267   -8.2023   -4.0578 C.2       1 <0>         0.2200
     18 N3         -2.5894   -9.4670   -3.9712 N.2       1 <0>        -0.2880
     19 N4         -3.6439  -10.2125   -4.0002 N.2       1 <0>        -0.2519
     20 C15        -4.6978   -9.4619   -4.1069 C.2       1 <0>         0.1767
     21 N5         -4.2702   -8.1503   -4.1392 N.pl3     1 <0>        -0.3115
     22 N6         -5.1364   -7.1068   -4.2364 N.3       1 <0>        -0.4334
     23 C16        -6.3229   -7.4624   -5.0207 C.3       1 <0>         0.2616
     24 H1         -7.0746   -6.6834   -4.8934 H         1 <0>         0.0945
     25 C17        -6.9177   -8.7804   -4.6138 C.2       1 <0>        -0.1708
     26 C18        -6.1364   -9.7794   -4.1857 C.2       1 <0>        -0.0363
     27 N7         -5.9493   -7.5317   -6.4397 N.3       1 <0>        -0.5115
     28 C19        -7.1486   -7.7090   -7.2978 C.3       1 <0>         0.0405
     29 C20        -6.6602   -7.2390   -8.6911 C.3       1 <0>        -0.1232
     30 C21        -5.7356   -6.0480   -8.3496 C.3       1 <0>        -0.1348
     31 C22        -5.3185   -6.2699   -6.8840 C.3       1 <0>         0.0513
     32 H2         -0.9665    1.8612    0.0259 H         1 <0>         0.1579
     33 H3          1.0933    3.1789    0.0083 H         1 <0>         0.1612
     34 H4          3.2717    2.1606   -0.0175 H         1 <0>         0.1609
     35 H5          3.4952   -2.5561   -0.9413 H         1 <0>         0.1754
     36 H6          3.5129   -2.5667    0.8465 H         1 <0>         0.1753
     37 H7         -0.9210   -0.5647    0.0081 H         1 <0>         0.1602
     38 H8          1.1268   -3.9987    0.5563 H         1 <0>         0.1196
     39 H9         -0.2596   -2.8905    0.4214 H         1 <0>         0.1158
     40 H10         0.0203   -2.8403   -2.0419 H         1 <0>         0.0789
     41 H11         1.4067   -3.9484   -1.9070 H         1 <0>         0.0789
     42 H12        -0.8103   -5.1361   -0.6220 H         1 <0>         0.4071
     43 H13        -1.3155   -7.3705   -2.0415 H         1 <0>         0.1076
     44 H14        -2.7019   -6.2623   -2.1764 H         1 <0>         0.0956
     45 H15        -2.4220   -6.2121   -4.6397 H         1 <0>         0.0985
     46 H16        -1.0356   -7.3202   -4.5048 H         1 <0>         0.1093
     47 H17        -5.3956   -6.7658   -3.3228 H         1 <0>         0.3672
     48 H18        -7.9863   -8.9252   -4.6736 H         1 <0>         0.1451
     49 H19        -6.5331  -10.7444   -3.9067 H         1 <0>         0.1638
     50 H20        -7.4482   -8.7566   -7.3284 H         1 <0>         0.0875
     51 H21        -7.9689   -7.0832   -6.9465 H         1 <0>         0.0500
     52 H22        -6.1013   -8.0302   -9.1910 H         1 <0>         0.0768
     53 H23        -7.5000   -6.9120   -9.3041 H         1 <0>         0.0770
     54 H24        -4.8589   -6.0519   -8.9972 H         1 <0>         0.0739
     55 H25        -6.2773   -5.1075   -8.4506 H         1 <0>         0.0690
     56 H26        -5.6704   -5.4420   -6.2683 H         1 <0>         0.0484
     57 H27        -4.2338   -6.3526   -6.8150 H         1 <0>         0.0774
     58 H28         4.5087   -0.3528   -0.0446 H         1 <0>         0.4564
@<TRIPOS>BOND
     1    1    9 ar
     2    1    2 ar
     3    1   32 1
     4    2    3 ar
     5    2   33 1
     6    3    4 ar
     7    3   34 1
     8    4    8 ar
     9    4    5 2
    10    5    6 1
    11    5   58 1
    12    6    7 1
    13    6   35 1
    14    6   36 1
    15    7    8 2
    16    7   10 1
    17    8    9 ar
    18    9   37 1
    19   10   11 1
    20   10   38 1
    21   10   39 1
    22   11   12 1
    23   11   40 1
    24   11   41 1
    25   12   13 am
    26   12   42 1
    27   13   14 2
    28   13   15 1
    29   15   16 1
    30   15   43 1
    31   15   44 1
    32   16   17 1
    33   16   45 1
    34   16   46 1
    35   17   21 1
    36   17   18 2
    37   18   19 1
    38   19   20 2
    39   20   26 1
    40   20   21 1
    41   21   22 1
    42   22   23 1
    43   22   47 1
    44   23   24 1
    45   23   25 1
    46   23   27 1
    47   25   26 2
    48   25   48 1
    49   26   49 1
    50   27   31 1
    51   27   28 1
    52   28   29 1
    53   28   50 1
    54   28   51 1
    55   29   30 1
    56   29   52 1
    57   29   53 1
    58   30   31 1
    59   30   54 1
    60   30   55 1
    61   31   56 1
    62   31   57 1
