@<TRIPOS>MOLECULE
ZINC19940727
   70    75     0     0     0
SMALL
USER_CHARGES
6-ethyl-3-[(S)-[4-(2-fluorophenyl)piperazin-1-yl]-[1-[[(2S)-tetrahydrofuran-2-yl]methyl]tetrazol-5-yl]methyl]-1H-quinolin-2-one
@<TRIPOS>ATOM
      1 C1          3.2737   -3.5441   -3.3020 C.3       1 <0>        -0.1510
      2 C2          3.7778   -2.1012   -3.3713 C.3       1 <0>        -0.0850
      3 C3          3.2920   -1.3409   -2.1642 C.ar      1 <0>        -0.1123
      4 C4          4.0657   -1.3127   -1.0117 C.ar      1 <0>        -0.0556
      5 C5          3.6411   -0.6238    0.1038 C.ar      1 <0>        -0.1631
      6 C6          2.4249    0.0510    0.0768 C.ar      1 <0>         0.1937
      7 C7          1.6433    0.0201   -1.0934 C.ar      1 <0>        -0.1325
      8 C8          2.0947   -0.6854   -2.2139 C.ar      1 <0>        -0.0482
      9 C9          0.3649    0.7334   -1.1120 C.2       1 <0>         0.0035
     10 C10        -0.0207    1.4008    0.0036 C.2       1 <0>        -0.1847
     11 C11         0.8006    1.4009    1.1514 C.2       1 <0>         0.5505
     12 O1          0.4351    2.0072    2.1435 O.2       1 <0>        -0.5107
     13 N1          1.9759    0.7484    1.1780 N.am      1 <0>        -0.6439
     14 H1          2.5817    0.7766    2.0957 H         1 <0>         0.4437
     15 C12        -1.3338    2.1401    0.0200 C.3       1 <0>         0.2351
     16 H2         -1.1657    3.2066    0.2307 H         1 <0>         0.1174
     17 C13        -2.0195    1.9756   -1.3119 C.2       1 <0>         0.1430
     18 N2         -2.6287    0.9014   -1.7511 N.2       1 <0>        -0.2883
     19 N3         -3.0867    1.1568   -2.9279 N.2       1 <0>        -0.0771
     20 N4         -2.7787    2.3635   -3.2540 N.2       1 <0>        -0.0714
     21 N5         -2.1202    2.9014   -2.2837 N.pl3     1 <0>        -0.2914
     22 C14        -1.5835    4.2641   -2.2464 C.3       1 <0>         0.0921
     23 C15        -0.1611    4.2675   -2.8100 C.3       1 <0>         0.0623
     24 H3          0.4388    3.4900   -2.3143 H         1 <0>         0.0894
     25 C16         0.4548    5.6761   -2.6689 C.3       1 <0>        -0.1486
     26 C17         1.2379    5.8284   -4.0014 C.3       1 <0>        -0.1539
     27 C18         0.3184    5.0476   -4.9739 C.3       1 <0>         0.0504
     28 O2         -0.1906    3.9458   -4.2055 O.3       1 <0>        -0.3643
     29 N6         -2.1896    1.5946    1.0820 N.3       1 <0>        -0.4935
     30 C19        -2.3746    0.1461    0.9174 C.3       1 <0>         0.0313
     31 C20        -3.2036   -0.3955    2.0844 C.3       1 <0>         0.0479
     32 N7         -4.4993    0.2967    2.1244 N.pl3     1 <0>        -0.4857
     33 C21        -4.3143    1.7453    2.2889 C.3       1 <0>         0.0629
     34 C22        -3.4853    2.2869    1.1219 C.3       1 <0>         0.0510
     35 C23        -5.3140   -0.2225    3.1354 C.ar      1 <0>         0.0874
     36 C24        -6.6132    0.2418    3.2894 C.ar      1 <0>        -0.1132
     37 C25        -7.4157   -0.2731    4.2891 C.ar      1 <0>        -0.1036
     38 C26        -6.9271   -1.2501    5.1368 C.ar      1 <0>        -0.1179
     39 C27        -5.6338   -1.7163    4.9873 C.ar      1 <0>        -0.1280
     40 C28        -4.8265   -1.2094    3.9855 C.ar      1 <0>         0.0496
     41 F1         -3.5648   -1.6688    3.8358 F         1 <0>        -0.1349
     42 H4          3.6283   -4.0991   -4.1831 H         1 <0>         0.0603
     43 H5          2.1738   -3.5478   -3.2845 H         1 <0>         0.0569
     44 H6          3.6566   -4.0228   -2.3886 H         1 <0>         0.0567
     45 H7          4.8777   -2.0975   -3.3888 H         1 <0>         0.0745
     46 H8          3.3950   -1.6225   -4.2847 H         1 <0>         0.0735
     47 H9          5.0100   -1.8364   -0.9890 H         1 <0>         0.1323
     48 H10         4.2504   -0.6076    0.9953 H         1 <0>         0.1359
     49 H11         1.4987   -0.7121   -3.1141 H         1 <0>         0.1313
     50 H12        -0.2572    0.7283   -1.9948 H         1 <0>         0.1327
     51 H13        -2.2198    4.9255   -2.8528 H         1 <0>         0.1226
     52 H14        -1.5669    4.6233   -1.2068 H         1 <0>         0.1214
     53 H15        -0.3493    6.4183   -2.5567 H         1 <0>         0.0860
     54 H16         1.1062    5.7044   -1.7829 H         1 <0>         0.0916
     55 H17         1.3349    6.8956   -4.2497 H         1 <0>         0.0903
     56 H18         2.2386    5.3851   -3.8914 H         1 <0>         0.0820
     57 H19        -0.4907    5.7065   -5.3220 H         1 <0>         0.0666
     58 H20         0.9066    4.7019   -5.8368 H         1 <0>         0.0921
     59 H21        -2.8992   -0.0513   -0.0291 H         1 <0>         0.0894
     60 H22        -1.3927   -0.3496    0.9027 H         1 <0>         0.0780
     61 H23        -3.3674   -1.4747    1.9481 H         1 <0>         0.0959
     62 H24        -2.6652   -0.2227    3.0280 H         1 <0>         0.0673
     63 H25        -5.2962    2.2410    2.3036 H         1 <0>         0.0888
     64 H26        -3.7897    1.9428    3.2353 H         1 <0>         0.0577
     65 H27        -3.3204    3.3660    1.2576 H         1 <0>         0.0855
     66 H28        -4.0226    2.1140    0.1778 H         1 <0>         0.0461
     67 H29        -6.9962    1.0052    2.6283 H         1 <0>         0.1338
     68 H30        -8.4266    0.0880    4.4086 H         1 <0>         0.1316
     69 H31        -7.5572   -1.6504    5.9173 H         1 <0>         0.1320
     70 H32        -5.2553   -2.4798    5.6508 H         1 <0>         0.1351
@<TRIPOS>BOND
     1    1    2 1
     2    1   42 1
     3    1   43 1
     4    1   44 1
     5    2    3 1
     6    2   45 1
     7    2   46 1
     8    3    8 ar
     9    3    4 ar
    10    4    5 ar
    11    4   47 1
    12    5    6 ar
    13    5   48 1
    14    6   13 1
    15    6    7 ar
    16    7    8 ar
    17    7    9 1
    18    8   49 1
    19    9   10 2
    20    9   50 1
    21   10   11 1
    22   10   15 1
    23   11   12 2
    24   11   13 am
    25   13   14 1
    26   15   16 1
    27   15   17 1
    28   15   29 1
    29   17   21 1
    30   17   18 2
    31   18   19 1
    32   19   20 2
    33   20   21 1
    34   21   22 1
    35   22   23 1
    36   22   51 1
    37   22   52 1
    38   23   24 1
    39   23   28 1
    40   23   25 1
    41   25   26 1
    42   25   53 1
    43   25   54 1
    44   26   27 1
    45   26   55 1
    46   26   56 1
    47   27   28 1
    48   27   57 1
    49   27   58 1
    50   29   34 1
    51   29   30 1
    52   30   31 1
    53   30   59 1
    54   30   60 1
    55   31   32 1
    56   31   61 1
    57   31   62 1
    58   32   33 1
    59   32   35 1
    60   33   34 1
    61   33   63 1
    62   33   64 1
    63   34   65 1
    64   34   66 1
    65   35   40 ar
    66   35   36 ar
    67   36   37 ar
    68   36   67 1
    69   37   38 ar
    70   37   68 1
    71   38   39 ar
    72   38   69 1
    73   39   40 ar
    74   39   70 1
    75   40   41 1
