@<TRIPOS>MOLECULE
ZINC17082737
   58    60     0     0     0
SMALL
USER_CHARGES
(6S)-2-[[2-[(1-ethyl-5-methyl-pyrazol-4-yl)methyl-methyl-amino]acetyl]amino]-6-methyl-4,5,6,7-tetrahydrobenzothiophene-3-carboxamide
@<TRIPOS>ATOM
      1 C1        -11.1746   -6.5112   -0.4055 C.3       1 <0>        -0.1718
      2 C2        -10.9867   -7.8275    0.3514 C.3       1 <0>         0.1153
      3 N1         -9.6926   -8.4149   -0.0043 N.pl3     1 <0>        -0.3453
      4 C3         -8.5199   -8.1929    0.6255 C.2       1 <0>         0.1301
      5 C4         -7.5685   -8.9186   -0.0063 C.2       1 <0>        -0.3240
      6 C5         -8.1796   -9.6031   -1.0619 C.2       1 <0>         0.0769
      7 N2         -9.4540   -9.3066   -1.0580 N.2       1 <0>        -0.2705
      8 C6         -6.1075   -8.9745    0.3590 C.3       1 <0>         0.0916
      9 C7         -5.3093   -7.7352   -1.5619 C.3       1 <0>        -0.0512
     10 C8         -4.1326   -7.5867    0.5490 C.3       1 <0>        -0.0211
     11 C9         -3.5900   -6.2129    0.2500 C.2       1 <0>         0.4945
     12 O1         -4.2302   -5.4440   -0.4354 O.2       1 <0>        -0.4944
     13 N3         -2.3931   -5.8388    0.7441 N.am      1 <0>        -0.5939
     14 C10        -1.8939   -4.5748    0.4690 C.2       1 <0>         0.0295
     15 C11        -0.6944   -4.0127    0.8824 C.2       1 <0>        -0.1877
     16 C12        -0.4047   -2.6558    0.4512 C.2       1 <0>        -0.0721
     17 C13        -1.3540   -2.0822   -0.3196 C.2       1 <0>        -0.1799
     18 S1         -2.6157   -3.3143   -0.4755 S.3       1 <0>         0.2328
     19 C14        -1.3296   -0.7050   -0.9076 C.3       1 <0>        -0.0375
     20 C15         0.1057   -0.1665   -0.8182 C.3       1 <0>        -0.0856
     21 H1          0.7386   -0.6859   -1.5377 H         1 <0>         0.0778
     22 C16         0.6352   -0.4066    0.5986 C.3       1 <0>        -0.1173
     23 C17         0.8670   -1.9022    0.8209 C.3       1 <0>        -0.0635
     24 C18         0.1104    1.3335   -1.1201 C.3       1 <0>        -0.1502
     25 C19         0.2455   -4.7602    1.7237 C.2       1 <0>         0.5765
     26 O2          0.1615   -4.6948    2.9362 O.2       1 <0>        -0.5259
     27 N4          1.2023   -5.5196    1.1545 N.am      1 <0>        -0.8455
     28 C20        -8.3078   -7.2967    1.8184 C.3       1 <0>        -0.1196
     29 H2        -10.3757   -5.8202   -0.1366 H         1 <0>         0.0613
     30 H3        -11.1446   -6.7016   -1.4784 H         1 <0>         0.0696
     31 H4        -12.1375   -6.0742   -0.1409 H         1 <0>         0.0887
     32 H5        -11.7856   -8.5186    0.0825 H         1 <0>         0.1079
     33 H6        -11.0167   -7.6372    1.4242 H         1 <0>         0.1023
     34 H7         -7.6855  -10.2646   -1.7581 H         1 <0>         0.1932
     35 H8         -5.6463   -9.8387   -0.1190 H         1 <0>         0.1423
     36 H9         -6.0065   -9.0607    1.4409 H         1 <0>         0.1319
     37 H10        -4.5796   -8.4850   -1.8675 H         1 <0>         0.1230
     38 H11        -6.2743   -7.9611   -2.0156 H         1 <0>         0.1254
     39 H12        -4.9762   -6.7499   -1.8880 H         1 <0>         0.1326
     40 H13        -3.4433   -8.3404    0.1684 H         1 <0>         0.1692
     41 H14        -4.2434   -7.7069    1.6267 H         1 <0>         0.1650
     42 H15        -1.8811   -6.4538    1.2923 H         1 <0>         0.4266
     43 H16        -2.0015   -0.0546   -0.3476 H         1 <0>         0.0890
     44 H17        -1.6422   -0.7457   -1.9511 H         1 <0>         0.0855
     45 H18         1.5755    0.1289    0.7293 H         1 <0>         0.0762
     46 H19        -0.0920   -0.0412    1.3237 H         1 <0>         0.0691
     47 H20         1.6893   -2.2420    0.1912 H         1 <0>         0.0809
     48 H21         1.1099   -2.0827    1.8680 H         1 <0>         0.0791
     49 H22         1.1281    1.7162   -1.0439 H         1 <0>         0.0619
     50 H23        -0.2668    1.5022   -2.1287 H         1 <0>         0.0595
     51 H24        -0.5269    1.8505   -0.4026 H         1 <0>         0.0586
     52 H25         1.2692   -5.5717    0.1882 H         1 <0>         0.4045
     53 H26         1.8241   -6.0141    1.7110 H         1 <0>         0.4078
     54 H27        -7.9886   -6.3110    1.4802 H         1 <0>         0.0905
     55 H28        -9.2407   -7.2055    2.3748 H         1 <0>         0.0915
     56 H29        -7.5407   -7.7256    2.4632 H         1 <0>         0.0921
     57 N5         -5.4575   -7.7257   -0.0912 N.4       1 <0>        -0.3849
     58 H30        -6.0442   -6.9279    0.1797 H         1 <0>         0.4315
@<TRIPOS>BOND
     1    1    2 1
     2    1   29 1
     3    1   30 1
     4    1   31 1
     5    2    3 1
     6    2   32 1
     7    2   33 1
     8    3    7 1
     9    3    4 1
    10    4    5 2
    11    4   28 1
    12    5    6 1
    13    5    8 1
    14    6    7 2
    15    6   34 1
    16    8   35 1
    17    8   36 1
    18    8   57 1
    19    9   37 1
    20    9   38 1
    21    9   39 1
    22    9   57 1
    23   10   11 1
    24   10   40 1
    25   10   41 1
    26   10   57 1
    27   11   12 2
    28   11   13 am
    29   13   14 1
    30   13   42 1
    31   14   18 1
    32   14   15 2
    33   15   16 1
    34   15   25 1
    35   16   23 1
    36   16   17 2
    37   17   18 1
    38   17   19 1
    39   19   20 1
    40   19   43 1
    41   19   44 1
    42   20   21 1
    43   20   22 1
    44   20   24 1
    45   22   23 1
    46   22   45 1
    47   22   46 1
    48   23   47 1
    49   23   48 1
    50   24   49 1
    51   24   50 1
    52   24   51 1
    53   25   26 2
    54   25   27 am
    55   27   52 1
    56   27   53 1
    57   28   54 1
    58   28   55 1
    59   28   56 1
    60   57   58 1
