@<TRIPOS>MOLECULE
ZINC67526783
   45    47     0     0     0
SMALL
USER_CHARGES

@<TRIPOS>ATOM
      1 C1          0.0432    1.4175    0.2536 C.3       1 <0>        -0.1298
      2 C2          0.0759   -0.0815    0.1017 C.ar      1 <0>        -0.0274
      3 C3         -0.4334   -0.8876    1.0998 C.ar      1 <0>        -0.1083
      4 C4         -0.4054   -2.2627    0.9657 C.ar      1 <0>        -0.1052
      5 C5          0.1356   -2.8437   -0.1758 C.ar      1 <0>         0.1203
      6 C6          0.6493   -2.0426   -1.1842 C.ar      1 <0>        -0.0864
      7 C7          0.6161   -0.6546   -1.0508 C.ar      1 <0>        -0.1263
      8 C8          1.1567    0.2069   -2.1241 C.2       1 <0>         0.5657
      9 O1          1.1987    1.4122   -1.9728 O.2       1 <0>        -0.5308
     10 N1          1.6030   -0.3444   -3.2701 N.am      1 <0>        -0.8487
     11 N2          0.1620   -4.2349   -0.3066 N.am      1 <0>        -0.6338
     12 C9          0.1462   -4.7970   -1.5314 C.2       1 <0>         0.5143
     13 O2          0.0102   -4.1014   -2.5167 O.2       1 <0>        -0.4886
     14 C10         0.2960   -6.2760   -1.6762 C.2       1 <0>         0.5171
     15 O3          0.3221   -6.9827   -0.6900 O.2       1 <0>        -0.5112
     16 N3          0.4023   -6.8256   -2.9022 N.am      1 <0>        -0.5814
     17 C11         0.4503   -8.2851   -3.0759 C.3       1 <0>         0.0950
     18 C12        -0.7843   -8.7424   -3.8598 C.3       1 <0>         0.0916
     19 N4         -0.9747   -7.8621   -5.0179 N.pl3     1 <0>        -0.4492
     20 C13        -1.7123   -8.1237   -6.1313 C.2       1 <0>        -0.0088
     21 C14        -1.6354   -7.0539   -6.9506 C.2       1 <0>        -0.1984
     22 C15        -0.8156   -6.0952   -6.3193 C.2       1 <0>        -0.1796
     23 C16        -0.4244   -6.6158   -5.1457 C.2       1 <0>         0.0042
     24 C17         0.4678   -5.9814   -4.1097 C.3       1 <0>         0.1551
     25 H1          0.1141   -4.9762   -3.8803 H         1 <0>         0.1746
     26 C18         1.9056   -5.9245   -4.6296 C.3       1 <0>        -0.1522
     27 H2         -0.8203    1.8177   -0.2777 H         1 <0>         0.0754
     28 H3         -0.0295    1.6741    1.3104 H         1 <0>         0.0608
     29 H4          0.9557    1.8448   -0.1622 H         1 <0>         0.1036
     30 H5         -0.8548   -0.4420    1.9888 H         1 <0>         0.1390
     31 H6         -0.8048   -2.8882    1.7504 H         1 <0>         0.1357
     32 H7          1.0700   -2.4917   -2.0718 H         1 <0>         0.1462
     33 H8          1.5695   -1.3062   -3.3909 H         1 <0>         0.4022
     34 H9          1.9577    0.2208   -3.9742 H         1 <0>         0.4067
     35 H10         0.1917   -4.7958    0.4842 H         1 <0>         0.4265
     36 H11         1.3515   -8.5567   -3.6255 H         1 <0>         0.0904
     37 H12         0.4600   -8.7677   -2.0986 H         1 <0>         0.1178
     38 H13        -0.6395   -9.7673   -4.2014 H         1 <0>         0.1030
     39 H14        -1.6629   -8.6930   -3.2166 H         1 <0>         0.0845
     40 H15        -2.2641   -9.0314   -6.3259 H         1 <0>         0.1618
     41 H16        -2.1139   -6.9508   -7.9133 H         1 <0>         0.1380
     42 H17        -0.5520   -5.1227   -6.7080 H         1 <0>         0.1381
     43 H18         2.2427   -6.9312   -4.8767 H         1 <0>         0.0564
     44 H19         1.9450   -5.2990   -5.5214 H         1 <0>         0.0802
     45 H20         2.5534   -5.5028   -3.8611 H         1 <0>         0.0617
@<TRIPOS>BOND
     1    1    2 1
     2    1   27 1
     3    1   28 1
     4    1   29 1
     5    2    7 ar
     6    2    3 ar
     7    3    4 ar
     8    3   30 1
     9    4    5 ar
    10    4   31 1
    11    5    6 ar
    12    5   11 1
    13    6    7 ar
    14    6   32 1
    15    7    8 1
    16    8    9 2
    17    8   10 am
    18   10   33 1
    19   10   34 1
    20   11   12 am
    21   11   35 1
    22   12   13 2
    23   12   14 1
    24   14   15 2
    25   14   16 am
    26   16   24 1
    27   16   17 1
    28   17   18 1
    29   17   36 1
    30   17   37 1
    31   18   19 1
    32   18   38 1
    33   18   39 1
    34   19   23 1
    35   19   20 1
    36   20   21 2
    37   20   40 1
    38   21   22 1
    39   21   41 1
    40   22   23 2
    41   22   42 1
    42   23   24 1
    43   24   25 1
    44   24   26 1
    45   26   43 1
    46   26   44 1
    47   26   45 1
