@<TRIPOS>MOLECULE
ZINC26833048
   52    54     0     0     0
SMALL
USER_CHARGES

@<TRIPOS>ATOM
      1 C1         -0.0173    1.4248    0.0099 C.3       1 <0>         0.0125
      2 O1          0.0021   -0.0041    0.0020 O.3       1 <0>        -0.3054
      3 C2          0.6058   -0.6071   -1.0557 C.ar      1 <0>         0.2613
      4 C3          1.1731    0.1608   -2.0625 C.ar      1 <0>        -0.2193
      5 C4          1.7865   -0.4545   -3.1363 C.ar      1 <0>         0.0376
      6 C5          1.8356   -1.8346   -3.2084 C.ar      1 <0>        -0.0993
      7 C6          1.2707   -2.6020   -2.2067 C.ar      1 <0>         0.0821
      8 C7          0.6609   -1.9913   -1.1277 C.ar      1 <0>        -0.7149
      9 S1         -0.0524   -2.9699    0.1522 S.o2      1 <0>         2.7064
     10 O2         -1.3603   -2.4598    0.3724 O.2       1 <0>        -0.9277
     11 O3          0.1879   -4.3273   -0.1927 O.2       1 <0>        -0.9376
     12 N1          0.8103   -2.6729    1.5342 N.pl3     1 <0>        -1.1149
     13 C8          0.7909   -1.3379    2.1371 C.3       1 <0>         0.1237
     14 C9          1.3370   -1.4148    3.5643 C.3       1 <0>        -0.1633
     15 C10         1.3167   -0.0206    4.1940 C.3       1 <0>        -0.0081
     16 N2          1.8409   -0.0945    5.5643 N.4       1 <0>        -0.3836
     17 C11         1.7219    1.2225    6.2085 C.3       1 <0>        -0.0025
     18 C12         1.9790    1.0575    7.7069 C.3       1 <0>        -0.1060
     19 C13         3.2659    0.3030    7.9234 C.ar      1 <0>        -0.0917
     20 C14         3.8576    0.3434    9.1763 C.ar      1 <0>        -0.1046
     21 C15         5.0349   -0.3378    9.4129 C.ar      1 <0>        -0.0911
     22 C16         5.6258   -1.0638    8.3954 C.ar      1 <0>        -0.1045
     23 C17         5.0379   -1.1034    7.1473 C.ar      1 <0>        -0.0931
     24 C18         3.8560   -0.4183    6.9074 C.ar      1 <0>        -0.1361
     25 C19         3.2539   -0.4823    5.5285 C.3       1 <0>         0.0438
     26 N3          2.4935   -2.4914   -4.3600 N.pl3     1 <0>         0.0326
     27 O4          2.9875   -1.8213   -5.2368 O.2       1 <0>        -0.1472
     28 O5          2.5369   -3.6979   -4.4241 O.3       1 <0>        -0.1442
     29 H1          1.0053    1.8021    0.0021 H         1 <0>         0.0698
     30 H2         -0.5445    1.7859   -0.8732 H         1 <0>         0.0757
     31 H3         -0.5275    1.7763    0.9067 H         1 <0>         0.1172
     32 H4          1.1347    1.2386   -2.0069 H         1 <0>         0.1637
     33 H5          2.2279    0.1427   -3.9204 H         1 <0>         0.1691
     34 H6          1.3099   -3.6796   -2.2654 H         1 <0>         0.1816
     35 H7          1.3285   -3.3829    1.9444 H         1 <0>         0.4240
     36 H8          1.4111   -0.6635    1.5467 H         1 <0>         0.0751
     37 H9         -0.2328   -0.9641    2.1594 H         1 <0>         0.0994
     38 H10         0.7167   -2.0892    4.1547 H         1 <0>         0.1011
     39 H11         2.3606   -1.7886    3.5420 H         1 <0>         0.0960
     40 H12         1.9369    0.6538    3.6035 H         1 <0>         0.1343
     41 H13         0.2930    0.3532    4.2163 H         1 <0>         0.1402
     42 H14         2.4577    1.9054    5.7839 H         1 <0>         0.1329
     43 H15         0.7183    1.6176    6.0507 H         1 <0>         0.1388
     44 H16         2.0524    2.0403    8.1724 H         1 <0>         0.1240
     45 H17         1.1546    0.5048    8.1574 H         1 <0>         0.1043
     46 H18         3.3958    0.9107    9.9708 H         1 <0>         0.1354
     47 H19         5.4933   -0.3033   10.3902 H         1 <0>         0.1373
     48 H20         6.5463   -1.5988    8.5769 H         1 <0>         0.1378
     49 H21         5.5006   -1.6707    6.3533 H         1 <0>         0.1339
     50 H22         3.3378   -1.4998    5.1467 H         1 <0>         0.1384
     51 H23         3.7958    0.1946    4.8679 H         1 <0>         0.1373
     52 H24         1.3166   -0.7776    6.0900 H         1 <0>         0.4279
@<TRIPOS>BOND
     1    1    2 1
     2    1   29 1
     3    1   30 1
     4    1   31 1
     5    2    3 1
     6    3    8 ar
     7    3    4 ar
     8    4    5 ar
     9    4   32 1
    10    5    6 ar
    11    5   33 1
    12    6    7 ar
    13    6   26 1
    14    7    8 ar
    15    7   34 1
    16    8    9 1
    17    9   10 2
    18    9   11 2
    19    9   12 1
    20   12   13 1
    21   12   35 1
    22   13   14 1
    23   13   36 1
    24   13   37 1
    25   14   15 1
    26   14   38 1
    27   14   39 1
    28   15   16 1
    29   15   40 1
    30   15   41 1
    31   16   25 1
    32   16   17 1
    33   16   52 1
    34   17   18 1
    35   17   42 1
    36   17   43 1
    37   18   19 1
    38   18   44 1
    39   18   45 1
    40   19   24 ar
    41   19   20 ar
    42   20   21 ar
    43   20   46 1
    44   21   22 ar
    45   21   47 1
    46   22   23 ar
    47   22   48 1
    48   23   24 ar
    49   23   49 1
    50   24   25 1
    51   25   50 1
    52   25   51 1
    53   26   27 2
    54   26   28 1
