@<TRIPOS>MOLECULE
ZINC45011938
   45    46     0     0     0
SMALL
USER_CHARGES

@<TRIPOS>ATOM
      1 C1         -0.2003    1.5003   -0.4223 C.3       1 <0>        -0.1845
      2 C2         -0.1535    0.0092   -0.0824 C.3       1 <0>         0.0200
      3 H1          0.2052   -0.1196    0.9388 H         1 <0>         0.1476
      4 C3          0.7931   -0.7048   -1.0494 C.3       1 <0>         0.0905
      5 N1          0.7495   -2.1476   -0.7993 N.pl3     1 <0>        -1.1392
      6 S1          1.3271   -3.2030   -1.9372 S.o2      1 <0>         2.7044
      7 O1          1.1723   -4.5080   -1.3965 O.2       1 <0>        -0.9416
      8 O2          0.7497   -2.8190   -3.1775 O.2       1 <0>        -0.9502
      9 C4          3.0602   -2.9190   -2.0792 C.ar      1 <0>        -0.8066
     10 C5          3.5464   -1.9889   -2.9888 C.ar      1 <0>         0.0587
     11 C6          4.9136   -1.7962   -3.0688 C.ar      1 <0>        -0.2516
     12 C7          5.7508   -2.5364   -2.2399 C.ar      1 <0>         0.4584
     13 N2          5.2485   -3.4141   -1.3853 N.ar      1 <0>        -0.5343
     14 C8          3.9481   -3.6145   -1.2835 C.ar      1 <0>         0.2630
     15 N3          7.1269   -2.3532   -2.3101 N.pl3     1 <0>        -0.5506
     16 N4          7.9545   -3.0767   -1.4991 N.3       1 <0>        -0.5992
     17 N5         -1.5009   -0.5632   -0.2039 N.4       1 <0>        -0.3822
     18 C9         -2.0334   -0.2775   -1.5416 C.3       1 <0>        -0.0226
     19 C10        -3.4031   -0.9407   -1.7017 C.3       1 <0>        -0.1461
     20 C11        -4.3592   -0.3874   -0.6411 C.3       1 <0>        -0.1389
     21 C12        -3.7583   -0.6248    0.7473 C.3       1 <0>        -0.1468
     22 C13        -2.3754    0.0266    0.8167 C.3       1 <0>        -0.0109
     23 H2          0.7995    1.9250   -0.3321 H         1 <0>         0.1097
     24 H3         -0.5590    1.6291   -1.4435 H         1 <0>         0.0880
     25 H4         -0.8747    2.0090    0.2666 H         1 <0>         0.0891
     26 H5          0.4838   -0.5043   -2.0751 H         1 <0>         0.1090
     27 H6          1.8093   -0.3405   -0.8985 H         1 <0>         0.1141
     28 H7          0.3823   -2.4848    0.0328 H         1 <0>         0.4178
     29 H8          2.8720   -1.4290   -3.6198 H         1 <0>         0.1499
     30 H9          5.3257   -1.0812   -3.7654 H         1 <0>         0.1447
     31 H10         3.5739   -4.3351   -0.5714 H         1 <0>         0.1728
     32 H11         7.4996   -1.7116   -2.9349 H         1 <0>         0.4184
     33 H12         7.8026   -4.0671   -1.6186 H         1 <0>         0.3531
     34 H13         8.9209   -2.8368   -1.6622 H         1 <0>         0.3642
     35 H14        -2.1349    0.8002   -1.6692 H         1 <0>         0.1350
     36 H15        -1.3503   -0.6691   -2.2954 H         1 <0>         0.1348
     37 H16        -3.7976   -0.7259   -2.6949 H         1 <0>         0.1143
     38 H17        -3.3028   -2.0186   -1.5745 H         1 <0>         0.0877
     39 H18        -4.4999    0.6818   -0.7994 H         1 <0>         0.0822
     40 H19        -5.3197   -0.8974   -0.7146 H         1 <0>         0.0950
     41 H20        -4.4066   -0.1842    1.5047 H         1 <0>         0.1132
     42 H21        -3.6653   -1.6961    0.9254 H         1 <0>         0.0877
     43 H22        -1.9447   -0.1403    1.8040 H         1 <0>         0.1306
     44 H23        -2.4695    1.0979    0.6388 H         1 <0>         0.1319
     45 H24        -1.4543   -1.5621   -0.0690 H         1 <0>         0.4193
@<TRIPOS>BOND
     1    1    2 1
     2    1   23 1
     3    1   24 1
     4    1   25 1
     5    2    3 1
     6    2    4 1
     7    2   17 1
     8    4    5 1
     9    4   26 1
    10    4   27 1
    11    5    6 1
    12    5   28 1
    13    6    7 2
    14    6    8 2
    15    6    9 1
    16    9   14 ar
    17    9   10 ar
    18   10   11 ar
    19   10   29 1
    20   11   12 ar
    21   11   30 1
    22   12   13 ar
    23   12   15 1
    24   13   14 ar
    25   14   31 1
    26   15   16 1
    27   15   32 1
    28   16   33 1
    29   16   34 1
    30   17   22 1
    31   17   18 1
    32   17   45 1
    33   18   19 1
    34   18   35 1
    35   18   36 1
    36   19   20 1
    37   19   37 1
    38   19   38 1
    39   20   21 1
    40   20   39 1
    41   20   40 1
    42   21   22 1
    43   21   41 1
    44   21   42 1
    45   22   43 1
    46   22   44 1
