@<TRIPOS>MOLECULE
ZINC05496536
   48    51     0     0     0
SMALL
USER_CHARGES
BLAHdione
@<TRIPOS>ATOM
      1 C1         -1.2168    1.7526   -0.0220 C.ar      1 <0>        -0.0853
      2 C2         -0.0126    1.0753    0.0080 C.ar      1 <0>        -0.1106
      3 C3          1.1813    1.7849    0.0004 C.ar      1 <0>         0.1068
      4 C4          1.1612    3.1696    0.0786 C.ar      1 <0>        -0.2051
      5 C5         -0.0462    3.8415    0.0847 C.ar      1 <0>        -0.0690
      6 C6         -1.2294    3.1335   -0.0112 C.ar      1 <0>        -0.0868
      7 C7         -2.5378    3.8816   -0.1001 C.3       1 <0>        -0.1025
      8 C8         -2.6984    4.3341   -1.5606 C.3       1 <0>         0.1078
      9 N1         -1.9044    3.4063   -2.4033 N.am      1 <0>        -0.7256
     10 C9         -0.7499    3.9018   -2.9390 C.2       1 <0>         0.5105
     11 O1         -0.3558    5.0141   -2.6551 O.2       1 <0>        -0.5160
     12 C10         0.0250    3.0305   -3.8983 C.3       1 <0>         0.1188
     13 H1         -0.4340    2.0494   -3.9628 H         1 <0>         0.1103
     14 C11         0.0589    3.7019   -5.2784 C.3       1 <0>        -0.1202
     15 C12         1.4746    4.2828   -5.4315 C.3       1 <0>        -0.1263
     16 C13         2.1653    4.0111   -4.0850 C.3       1 <0>         0.0897
     17 N2          1.4197    2.9141   -3.4609 N.am      1 <0>        -0.5885
     18 C14         1.9340    1.9685   -2.6444 C.2       1 <0>         0.5130
     19 O2          1.2946    0.9720   -2.3798 O.2       1 <0>        -0.4586
     20 C15         3.3305    2.1645   -2.1210 C.3       1 <0>        -0.0260
     21 H2          3.6011    3.2218   -2.2497 H         1 <0>         0.1621
     22 C16         3.4797    1.8105   -0.6401 C.3       1 <0>         0.0960
     23 H3          3.6586    2.7297   -0.0709 H         1 <0>         0.1157
     24 O3          2.3581    1.1209   -0.1060 O.3       1 <0>        -0.2869
     25 C17         4.7321    0.9149   -0.5356 C.3       1 <0>        -0.1314
     26 C18         5.1375    0.5864   -1.9792 C.3       1 <0>        -0.0085
     27 H4         -2.1462    1.2030   -0.0531 H         1 <0>         0.1310
     28 H5          0.0021   -0.0041    0.0020 H         1 <0>         0.1303
     29 H6          2.0830    3.7282    0.1380 H         1 <0>         0.1186
     30 H7         -0.0633    4.9197    0.1384 H         1 <0>         0.1258
     31 H8         -2.5157    4.7502    0.5569 H         1 <0>         0.0865
     32 H9         -3.3617    3.2251    0.1773 H         1 <0>         0.0812
     33 H10        -2.3352    5.3544   -1.6754 H         1 <0>         0.0986
     34 H11        -3.7507    4.2838   -1.8468 H         1 <0>         0.0840
     35 H12        -2.1915    2.4921   -2.5667 H         1 <0>         0.4096
     36 H13        -0.6801    4.5008   -5.3209 H         1 <0>         0.0921
     37 H14        -0.1320    2.9647   -6.0561 H         1 <0>         0.0922
     38 H15         1.4290    5.3530   -5.6247 H         1 <0>         0.0960
     39 H16         2.0062    3.7724   -6.2346 H         1 <0>         0.0821
     40 H17         2.1219    4.8973   -3.4574 H         1 <0>         0.0944
     41 H18         3.1976    3.7109   -4.2532 H         1 <0>         0.0701
     42 H19         5.5344    1.4523   -0.0325 H         1 <0>         0.1236
     43 H20         4.4912   -0.0007    0.0033 H         1 <0>         0.1283
     44 H21         6.1784    0.8742   -2.1368 H         1 <0>         0.1458
     45 H22         5.0288   -0.4851   -2.1520 H         1 <0>         0.1429
     46 N3          4.2666    1.3336   -2.8863 N.4       1 <0>        -0.4974
     47 H23         4.8405    1.9359   -3.4881 H         1 <0>         0.4412
     48 H24         3.7368    0.6738   -3.4679 H         1 <0>         0.4397
@<TRIPOS>BOND
     1    1    6 ar
     2    1    2 ar
     3    1   27 1
     4    2    3 ar
     5    2   28 1
     6    3   24 1
     7    3    4 ar
     8    4    5 ar
     9    4   29 1
    10    5    6 ar
    11    5   30 1
    12    6    7 1
    13    7    8 1
    14    7   31 1
    15    7   32 1
    16    8    9 1
    17    8   33 1
    18    8   34 1
    19    9   10 am
    20    9   35 1
    21   10   11 2
    22   10   12 1
    23   12   13 1
    24   12   17 1
    25   12   14 1
    26   14   15 1
    27   14   36 1
    28   14   37 1
    29   15   16 1
    30   15   38 1
    31   15   39 1
    32   16   17 1
    33   16   40 1
    34   16   41 1
    35   17   18 am
    36   18   19 2
    37   18   20 1
    38   20   21 1
    39   20   22 1
    40   20   46 1
    41   22   23 1
    42   22   24 1
    43   22   25 1
    44   25   26 1
    45   25   42 1
    46   25   43 1
    47   26   44 1
    48   26   45 1
    49   26   46 1
    50   46   47 1
    51   46   48 1
