@<TRIPOS>MOLECULE
ZINC40796626
   53    55     0     0     0
SMALL
USER_CHARGES

@<TRIPOS>ATOM
      1 C1         -0.0885    1.5885   -0.0806 C.3       1 <0>        -0.1883
      2 C2         -0.0593    0.0589   -0.0609 C.3       1 <0>         0.0904
      3 C3          0.6685   -0.4211    1.1964 C.3       1 <0>        -0.1476
      4 C4         -1.4917   -0.4786   -0.0575 C.3       1 <0>        -0.1455
      5 N1          0.6454   -0.4327   -1.2524 N.3       1 <0>        -0.4441
      6 N2          1.9304    0.0296   -1.2867 N.pl3     1 <0>        -0.5238
      7 C5          2.7679   -0.3231   -2.3382 C.ar      1 <0>         0.4292
      8 C6          4.0848    0.1385   -2.3810 C.ar      1 <0>         0.1132
      9 C7          4.8832   -0.2461   -3.4593 C.ar      1 <0>         0.4011
     10 N3          4.3628   -1.0325   -4.3987 N.ar      1 <0>        -0.4655
     11 C8          3.1144   -1.4462   -4.3203 C.ar      1 <0>         0.3438
     12 N4          2.3287   -1.1105   -3.3170 N.ar      1 <0>        -0.5095
     13 N5          6.2011    0.1856   -3.5508 N.pl3     1 <0>        -0.6530
     14 C9          7.2999   -0.6559   -3.0565 C.3       1 <0>         0.1252
     15 C10         8.3053   -0.8679   -4.1952 C.3       1 <0>         0.0949
     16 N6          8.6250    0.4381   -4.7885 N.pl3     1 <0>        -0.5926
     17 C11         7.5262    1.2796   -5.2828 C.3       1 <0>         0.0841
     18 C12         6.5213    1.4892   -4.1492 C.3       1 <0>         0.1270
     19 C13         9.9431    0.8699   -4.8801 C.ar      1 <0>         0.4415
     20 C14        10.9774    0.0058   -4.5342 C.ar      1 <0>        -0.1992
     21 C15        12.2841    0.4485   -4.6301 C.ar      1 <0>         0.0420
     22 C16        12.5139    1.7455   -5.0703 C.ar      1 <0>        -0.1643
     23 C17        11.4401    2.5489   -5.3968 C.ar      1 <0>         0.1479
     24 N7         10.2035    2.0980   -5.3008 N.ar      1 <0>        -0.5055
     25 N8          4.5921    0.9676   -1.3671 N.pl3     1 <0>        -0.8357
     26 H1          0.9320    1.9715   -0.0829 H         1 <0>         0.0509
     27 H2         -0.6070    1.9305   -0.9763 H         1 <0>         0.0694
     28 H3         -0.6114    1.9533    0.8035 H         1 <0>         0.0910
     29 H4          0.1456   -0.0563    2.0805 H         1 <0>         0.0851
     30 H5          0.6894   -1.5108    1.2104 H         1 <0>         0.0782
     31 H6          1.6890   -0.0382    1.1940 H         1 <0>         0.0488
     32 H7         -2.0102   -0.1366   -0.9532 H         1 <0>         0.0670
     33 H8         -1.4709   -1.5683   -0.0435 H         1 <0>         0.0783
     34 H9         -2.0146   -0.1138    0.8266 H         1 <0>         0.0877
     35 H10         0.1489   -0.1835   -2.0947 H         1 <0>         0.3494
     36 H11         2.2583    0.6039   -0.5771 H         1 <0>         0.4322
     37 H12         2.7241   -2.0831   -5.1003 H         1 <0>         0.2458
     38 H13         7.7932   -0.1597   -2.2207 H         1 <0>         0.0820
     39 H14         6.9058   -1.6191   -2.7325 H         1 <0>         0.1033
     40 H15         9.2139   -1.3229   -3.8009 H         1 <0>         0.1132
     41 H16         7.8676   -1.5169   -4.9536 H         1 <0>         0.1038
     42 H17         7.9204    2.2428   -5.6068 H         1 <0>         0.0884
     43 H18         7.0330    0.7835   -6.1187 H         1 <0>         0.1081
     44 H19         5.6131    1.9422   -4.5467 H         1 <0>         0.1010
     45 H20         6.9578    2.1415   -3.3930 H         1 <0>         0.0795
     46 H21        10.7626   -0.9969   -4.1952 H         1 <0>         0.1792
     47 H22        13.1073   -0.1997   -4.3682 H         1 <0>         0.1772
     48 H23        13.5226    2.1218   -5.1560 H         1 <0>         0.1838
     49 H24        11.6143    3.5583   -5.7392 H         1 <0>         0.2086
     50 H25         4.0061    1.2869   -0.6631 H         1 <0>         0.4071
     51 H26         5.5285    1.2208   -1.3708 H         1 <0>         0.4241
     52 H27         9.4670    2.6821   -5.5403 H         1 <0>         0.4368
     53 H28         1.4164   -1.4392   -3.2934 H         1 <0>         0.4540
@<TRIPOS>BOND
     1    1    2 1
     2    1   26 1
     3    1   27 1
     4    1   28 1
     5    2    3 1
     6    2    4 1
     7    2    5 1
     8    3   29 1
     9    3   30 1
    10    3   31 1
    11    4   32 1
    12    4   33 1
    13    4   34 1
    14    5    6 1
    15    5   35 1
    16    6    7 1
    17    6   36 1
    18    7   12 ar
    19    7    8 ar
    20    8    9 ar
    21    8   25 1
    22    9   10 ar
    23    9   13 1
    24   10   11 ar
    25   11   12 ar
    26   11   37 1
    27   12   53 1
    28   13   18 1
    29   13   14 1
    30   14   15 1
    31   14   38 1
    32   14   39 1
    33   15   16 1
    34   15   40 1
    35   15   41 1
    36   16   17 1
    37   16   19 1
    38   17   18 1
    39   17   42 1
    40   17   43 1
    41   18   44 1
    42   18   45 1
    43   19   24 ar
    44   19   20 ar
    45   20   21 ar
    46   20   46 1
    47   21   22 ar
    48   21   47 1
    49   22   23 ar
    50   22   48 1
    51   23   24 ar
    52   23   49 1
    53   24   52 1
    54   25   50 1
    55   25   51 1
