@<TRIPOS>MOLECULE
ZINC23026839
   54    57     0     0     0
SMALL
USER_CHARGES
(2S)-N-methyl-4-[3-(3-oxopiperazin-1-yl)sulfonylbenzoyl]-2,3-dihydro-1,4-benzoxazine-2-carboxamide
@<TRIPOS>ATOM
      1 C1          0.2108    0.0875   -4.4852 C.3       1 <0>         0.0884
      2 N1          1.1054    0.9794   -3.7432 N.am      1 <0>        -0.7399
      3 C2          0.7867    2.2801   -3.5919 C.2       1 <0>         0.5233
      4 O1         -0.2407    2.7123   -4.0701 O.2       1 <0>        -0.5033
      5 C3          1.7069    3.1975   -2.8286 C.3       1 <0>         0.0596
      6 H1          2.7005    3.2100   -3.3005 H         1 <0>         0.1085
      7 C4          1.7670    2.7593   -1.3583 C.3       1 <0>         0.0697
      8 N2          2.6364    3.7110   -0.6456 N.am      1 <0>        -0.5476
      9 C5          2.4965    5.0757   -0.9481 C.ar      1 <0>         0.0727
     10 C6          3.0712    6.0321   -0.1260 C.ar      1 <0>        -0.1089
     11 C7          2.9338    7.3738   -0.4297 C.ar      1 <0>        -0.1251
     12 C8          2.2202    7.7610   -1.5491 C.ar      1 <0>        -0.0983
     13 C9          1.6497    6.8112   -2.3754 C.ar      1 <0>        -0.1215
     14 C10         1.7809    5.4629   -2.0779 C.ar      1 <0>         0.0964
     15 O2          1.2084    4.5360   -2.8903 O.3       1 <0>        -0.2855
     16 C11         3.5353    3.2872    0.2648 C.2       1 <0>         0.5650
     17 O3          4.3239    4.0737    0.7522 O.2       1 <0>        -0.4928
     18 C12         3.5624    1.8661    0.6706 C.ar      1 <0>        -0.1520
     19 C13         2.3838    1.1180    0.6833 C.ar      1 <0>        -0.0442
     20 C14         2.4161   -0.2077    1.0627 C.ar      1 <0>        -0.1384
     21 C15         3.6133   -0.7963    1.4305 C.ar      1 <0>         0.0080
     22 C16         4.7848   -0.0607    1.4201 C.ar      1 <0>        -0.6839
     23 C17         4.7674    1.2648    1.0373 C.ar      1 <0>         0.0406
     24 S1          6.3037   -0.8200    1.8903 S.o2      1 <0>         2.6919
     25 O4          7.1646    0.2258    2.3199 O.2       1 <0>        -0.9378
     26 O5          5.9668   -1.9202    2.7241 O.2       1 <0>        -0.9404
     27 N3          6.9789   -1.4553    0.5182 N.pl3     1 <0>        -1.0028
     28 C18         6.6914   -2.8349    0.0907 C.3       1 <0>         0.0967
     29 C19         6.0159   -2.7720   -1.2859 C.3       1 <0>         0.1003
     30 N4          6.7383   -1.8719   -2.1743 N.am      1 <0>        -0.7281
     31 C20         7.5512   -0.8963   -1.7661 C.2       1 <0>         0.5118
     32 O6          8.0352   -0.1600   -2.5995 O.2       1 <0>        -0.5435
     33 C21         7.8948   -0.6668   -0.3196 C.3       1 <0>         0.1053
     34 H2          0.6358   -0.9270   -4.5021 H         1 <0>         0.0815
     35 H3          0.0986    0.4552   -5.5158 H         1 <0>         0.0634
     36 H4         -0.7736    0.0646   -3.9948 H         1 <0>         0.0635
     37 H5          2.0372    0.5874   -3.3096 H         1 <0>         0.4228
     38 H6          0.7537    2.7710   -0.9305 H         1 <0>         0.1034
     39 H7          2.1797    1.7416   -1.2956 H         1 <0>         0.1169
     40 H8          3.6256    5.7297    0.7502 H         1 <0>         0.1639
     41 H9          3.3804    8.1203    0.2102 H         1 <0>         0.1322
     42 H10         2.1116    8.8102   -1.7810 H         1 <0>         0.1342
     43 H11         1.0975    7.1194   -3.2509 H         1 <0>         0.1387
     44 H12         1.4487    1.5764    0.3972 H         1 <0>         0.1429
     45 H13         1.5050   -0.7876    1.0729 H         1 <0>         0.1466
     46 H14         3.6331   -1.8348    1.7267 H         1 <0>         0.1498
     47 H15         5.6834    1.8368    1.0253 H         1 <0>         0.1530
     48 H16         7.6315   -3.4026    0.0276 H         1 <0>         0.0946
     49 H17         6.0225   -3.3133    0.8212 H         1 <0>         0.1174
     50 H18         6.0014   -3.7767   -1.7335 H         1 <0>         0.0950
     51 H19         4.9847   -2.4065   -1.1720 H         1 <0>         0.0694
     52 H20         6.6317   -1.9724   -3.2645 H         1 <0>         0.4259
     53 H21         7.7869    0.4006   -0.0765 H         1 <0>         0.1242
     54 H22         8.9308   -0.9834   -0.1287 H         1 <0>         0.1168
@<TRIPOS>BOND
     1    1    2 1
     2    1   34 1
     3    1   35 1
     4    1   36 1
     5    2    3 am
     6    2   37 1
     7    3    4 2
     8    3    5 1
     9    5    6 1
    10    5   15 1
    11    5    7 1
    12    7    8 1
    13    7   38 1
    14    7   39 1
    15    8    9 1
    16    8   16 am
    17    9   14 ar
    18    9   10 ar
    19   10   11 ar
    20   10   40 1
    21   11   12 ar
    22   11   41 1
    23   12   13 ar
    24   12   42 1
    25   13   14 ar
    26   13   43 1
    27   14   15 1
    28   16   17 2
    29   16   18 1
    30   18   23 ar
    31   18   19 ar
    32   19   20 ar
    33   19   44 1
    34   20   21 ar
    35   20   45 1
    36   21   22 ar
    37   21   46 1
    38   22   23 ar
    39   22   24 1
    40   23   47 1
    41   24   25 2
    42   24   26 2
    43   24   27 1
    44   27   33 1
    45   27   28 1
    46   28   29 1
    47   28   48 1
    48   28   49 1
    49   29   30 1
    50   29   50 1
    51   29   51 1
    52   30   31 am
    53   30   52 1
    54   31   32 2
    55   31   33 1
    56   33   53 1
    57   33   54 1
