@<TRIPOS>MOLECULE
ZINC14463871
   45    49     0     0     0
SMALL
USER_CHARGES
(3aS,4R,9bS)-4-(1-naphthyl)-8-nitro-3a,4,5,9b-tetrahydro-3H-cyclopenta[c]quinolin-6-ol
@<TRIPOS>ATOM
      1 C1         -0.0126    1.0758    0.0080 C.ar      1 <0>        -0.1120
      2 C2         -1.2348    1.7456    0.0175 C.ar      1 <0>        -0.1084
      3 C3         -1.2886    3.1054    0.0311 C.ar      1 <0>        -0.1123
      4 C4         -0.0957    3.8486    0.0237 C.ar      1 <0>        -0.0371
      5 C5          1.1473    3.1674    0.0081 C.ar      1 <0>        -0.0485
      6 C6          1.1626    1.7620    0.0004 C.ar      1 <0>        -0.1039
      7 C7          2.3397    3.9104    0.0001 C.ar      1 <0>        -0.0961
      8 C8          2.2859    5.2706    0.0076 C.ar      1 <0>        -0.1142
      9 C9          1.0641    5.9401    0.0230 C.ar      1 <0>        -0.1180
     10 C10        -0.1113    5.2535    0.0306 C.ar      1 <0>        -0.1020
     11 C11        -1.4224    5.9964    0.0462 C.3       1 <0>         0.1456
     12 H1         -2.1590    5.4622   -0.5539 H         1 <0>         0.1183
     13 C12        -1.9196    6.1361    1.4700 C.3       1 <0>        -0.0931
     14 H2         -2.7809    6.8018    1.5276 H         1 <0>         0.1053
     15 C13        -2.1157    4.8573    2.2922 C.3       1 <0>        -0.0970
     16 C14        -1.8561    5.3658    3.7126 C.2       1 <0>        -0.1549
     17 C15        -1.0601    6.4288    3.6744 C.2       1 <0>        -0.1570
     18 C16        -0.6957    6.6947    2.2610 C.3       1 <0>        -0.0485
     19 H3          0.1705    6.0821    2.0110 H         1 <0>         0.1083
     20 C17        -0.4553    8.0653    1.7586 C.ar      1 <0>        -0.0986
     21 C18         0.0223    9.0661    2.5806 C.ar      1 <0>        -0.0257
     22 C19         0.2523   10.3344    2.0842 C.ar      1 <0>        -0.0605
     23 C20         0.0028   10.6027    0.7502 C.ar      1 <0>        -0.0561
     24 C21        -0.4803    9.6100   -0.0788 C.ar      1 <0>         0.0721
     25 C22        -0.7258    8.3223    0.4141 C.ar      1 <0>         0.1672
     26 N1         -1.2343    7.3572   -0.4817 N.pl3     1 <0>        -0.6210
     27 O1         -0.7209    9.8858   -1.3888 O.3       1 <0>        -0.4735
     28 N2          0.7634   11.4005    2.9745 N.pl3     1 <0>         0.0348
     29 O2          0.9824   11.1606    4.1484 O.2       1 <0>        -0.1617
     30 O3          0.9651   12.5177    2.5334 O.3       1 <0>        -0.1618
     31 H4          0.0021   -0.0041    0.0020 H         1 <0>         0.1261
     32 H5         -2.1530    1.1770    0.0187 H         1 <0>         0.1267
     33 H6         -2.2430    3.6108    0.0429 H         1 <0>         0.1305
     34 H7          2.1021    1.2295   -0.0117 H         1 <0>         0.1293
     35 H8          3.2941    3.4050   -0.0122 H         1 <0>         0.1307
     36 H9          3.2040    5.8393    0.0011 H         1 <0>         0.1258
     37 H10         1.0493    7.0200    0.0286 H         1 <0>         0.1154
     38 H11        -3.1334    4.4800    2.1918 H         1 <0>         0.0788
     39 H12        -1.3885    4.0958    2.0105 H         1 <0>         0.0947
     40 H13        -2.2596    4.9253    4.6124 H         1 <0>         0.1341
     41 H14        -0.7333    7.0031    4.5287 H         1 <0>         0.1346
     42 H15         0.2176    8.8556    3.6217 H         1 <0>         0.1555
     43 H16         0.1861   11.5915    0.3563 H         1 <0>         0.1614
     44 H17        -0.7168    7.3408   -1.3478 H         1 <0>         0.3777
     45 H18         0.0370    9.7310   -1.9690 H         1 <0>         0.3894
@<TRIPOS>BOND
     1    1    6 ar
     2    1    2 ar
     3    1   31 1
     4    2    3 ar
     5    2   32 1
     6    3    4 ar
     7    3   33 1
     8    4   10 ar
     9    4    5 ar
    10    5    6 ar
    11    5    7 ar
    12    6   34 1
    13    7    8 ar
    14    7   35 1
    15    8    9 ar
    16    8   36 1
    17    9   10 ar
    18    9   37 1
    19   10   11 1
    20   11   12 1
    21   11   26 1
    22   11   13 1
    23   13   14 1
    24   13   18 1
    25   13   15 1
    26   15   16 1
    27   15   38 1
    28   15   39 1
    29   16   17 2
    30   16   40 1
    31   17   18 1
    32   17   41 1
    33   18   19 1
    34   18   20 1
    35   20   25 ar
    36   20   21 ar
    37   21   22 ar
    38   21   42 1
    39   22   23 ar
    40   22   28 1
    41   23   24 ar
    42   23   43 1
    43   24   25 ar
    44   24   27 1
    45   25   26 1
    46   26   44 1
    47   27   45 1
    48   28   29 2
    49   28   30 1
