@<TRIPOS>MOLECULE
ZINC11191294
   33    35     0     0     0
SMALL
USER_CHARGES

@<TRIPOS>ATOM
      1 C1         -0.0184    1.5028    0.0103 C.3       1 <0>        -0.0602
      2 C2          0.0021   -0.0041    0.0020 C.2       1 <0>         0.0352
      3 N1          0.0098   -0.8438   -1.0138 N.2       1 <0>        -0.2358
      4 N2          0.0282   -2.0862   -0.7843 N.2       1 <0>        -0.2981
      5 C3          0.0399   -2.5678    0.4430 C.2       1 <0>         0.2307
      6 S1          0.0307   -1.1577    1.3670 S.3       1 <0>         0.0803
      7 N3          0.0603   -3.8928    0.8650 N.am      1 <0>        -0.6090
      8 C4          0.0711   -4.8891   -0.0426 C.2       1 <0>         0.5320
      9 O1          0.0631   -4.6301   -1.2274 O.2       1 <0>        -0.4470
     10 C5          0.0931   -6.3249    0.4147 C.3       1 <0>        -0.1547
     11 S2          0.1034   -7.4200   -1.0314 S.3       1 <0>         0.1167
     12 C6          0.1289   -9.0401   -0.3390 C.2       1 <0>         0.1671
     13 N4          0.1321   -9.3431    0.9384 N.2       1 <0>        -0.2917
     14 N5          0.1528  -10.6199    1.0841 N.2       1 <0>        -0.2670
     15 C7          0.1639  -11.2030   -0.0811 C.2       1 <0>         0.1895
     16 N6          0.1431  -10.2179   -1.0295 N.pl3     1 <0>        -0.3022
     17 N7          0.1404  -10.3789   -2.3860 N.3       1 <0>        -0.5835
     18 C8          0.1885  -12.6880   -0.3364 C.3       1 <0>        -0.1008
     19 C9         -0.0021  -13.6148    0.8660 C.3       1 <0>        -0.1412
     20 C10         1.3758  -13.4800    0.2148 C.3       1 <0>        -0.1546
     21 H1          1.0042    1.8801    0.0026 H         1 <0>         0.0963
     22 H2         -0.5455    1.8639   -0.8728 H         1 <0>         0.1024
     23 H3         -0.5286    1.8543    0.9071 H         1 <0>         0.0914
     24 H4          0.0667   -4.1000    1.8126 H         1 <0>         0.4325
     25 H5          0.9879   -6.5025    1.0113 H         1 <0>         0.1343
     26 H6         -0.7919   -6.5277    1.0178 H         1 <0>         0.1351
     27 H7          1.0816  -10.4085   -2.7484 H         1 <0>         0.3695
     28 H8         -0.3754  -11.2045   -2.6511 H         1 <0>         0.3781
     29 H9         -0.2307  -13.0081   -1.2903 H         1 <0>         0.1233
     30 H10        -0.1452  -13.1503    1.8417 H         1 <0>         0.1125
     31 H11        -0.5468  -14.5447    0.7034 H         1 <0>         0.1084
     32 H12         1.7376  -14.3213   -0.3763 H         1 <0>         0.1080
     33 H13         2.1392  -12.9269    0.7620 H         1 <0>         0.1021
@<TRIPOS>BOND
     1    1    2 1
     2    1   21 1
     3    1   22 1
     4    1   23 1
     5    2    6 1
     6    2    3 2
     7    3    4 1
     8    4    5 2
     9    5    6 1
    10    5    7 1
    11    7    8 am
    12    7   24 1
    13    8    9 2
    14    8   10 1
    15   10   11 1
    16   10   25 1
    17   10   26 1
    18   11   12 1
    19   12   16 1
    20   12   13 2
    21   13   14 1
    22   14   15 2
    23   15   16 1
    24   15   18 1
    25   16   17 1
    26   17   27 1
    27   17   28 1
    28   18   20 1
    29   18   19 1
    30   18   29 1
    31   19   20 1
    32   19   30 1
    33   19   31 1
    34   20   32 1
    35   20   33 1
