@<TRIPOS>MOLECULE
ZINC39709123
   40    43     0     0     0
SMALL
USER_CHARGES

@<TRIPOS>ATOM
      1 C1          1.0722   -0.4527   -0.7660 C.ar      1 <0>        -0.1213
      2 C2          2.2561    0.2585   -0.7779 C.ar      1 <0>        -0.0303
      3 C3          2.3761    1.4166   -0.0318 C.ar      1 <0>        -0.0583
      4 C4          1.3123    1.8662    0.7286 C.ar      1 <0>        -0.0306
      5 C5          0.1259    1.1593    0.7451 C.ar      1 <0>        -0.1394
      6 C6          0.0017   -0.0036   -0.0037 C.ar      1 <0>         0.1898
      7 N1         -1.1992   -0.7216    0.0101 N.am      1 <0>        -0.6615
      8 C7         -1.1825   -2.0648   -0.0990 C.2       1 <0>         0.5361
      9 O1         -0.1253   -2.6591   -0.1129 O.2       1 <0>        -0.4874
     10 C8         -2.4775   -2.8284   -0.2038 C.3       1 <0>        -0.1815
     11 S1         -2.1243   -4.6027   -0.3370 S.3       1 <0>         0.2430
     12 C9         -3.7172   -5.3472   -0.4500 C.2       1 <0>         0.2207
     13 N2         -4.7689   -4.5637   -0.4259 N.2       1 <0>        -0.5094
     14 C10        -6.0867   -5.1943   -0.4409 C.3       1 <0>         0.2289
     15 H1         -6.4191   -5.3776    0.5808 H         1 <0>         0.2040
     16 C11        -5.9195   -6.5181   -1.1730 C.2       1 <0>         0.0303
     17 C12        -6.9219   -6.5551   -2.0948 C.ar      1 <0>        -0.0234
     18 C13        -7.3522   -7.5626   -2.9918 C.ar      1 <0>        -0.0409
     19 C14        -8.4000   -7.2675   -3.8093 C.ar      1 <0>        -0.0323
     20 C15        -9.0703   -6.0385   -3.8162 C.ar      1 <0>         0.0300
     21 C16        -8.7477   -5.0049   -2.9947 C.ar      1 <0>        -0.1496
     22 C17        -7.6271   -5.2363   -2.0675 C.ar      1 <0>         0.3317
     23 N3         -7.1110   -4.4573   -1.1672 N.pl3     1 <0>        -0.5120
     24 Cl1        -8.9389   -8.4932   -4.9142 Cl        1 <0>         0.0027
     25 N4         -4.8636   -7.3052   -0.9486 N.2       1 <0>        -0.0381
     26 N5         -3.7853   -6.6961   -0.5624 N.2       1 <0>        -0.1000
     27 N6          3.6464    2.1764   -0.0468 N.pl3     1 <0>         0.0309
     28 O2          4.5775    1.7843   -0.7109 O.2       1 <0>        -0.1516
     29 O3          3.7528    3.1891    0.6049 O.3       1 <0>        -0.1522
     30 H2          0.9775   -1.3547   -1.3524 H         1 <0>         0.1572
     31 H3          3.0890   -0.0904   -1.3702 H         1 <0>         0.1616
     32 H4          1.4093    2.7709    1.3104 H         1 <0>         0.1625
     33 H5         -0.7046    1.5108    1.3395 H         1 <0>         0.1529
     34 H6         -2.0437   -0.2526    0.0982 H         1 <0>         0.4221
     35 H7         -3.0811   -2.6439    0.6849 H         1 <0>         0.1438
     36 H8         -3.0230   -2.4991   -1.0882 H         1 <0>         0.1407
     37 H9         -6.8680   -8.5273   -3.0262 H         1 <0>         0.1888
     38 H10        -9.8868   -5.9049   -4.5104 H         1 <0>         0.1814
     39 H11        -9.2824   -4.0669   -3.0208 H         1 <0>         0.1940
     40 H12        -7.3656   -3.5355   -1.0049 H         1 <0>         0.4667
@<TRIPOS>BOND
     1    1    6 ar
     2    1    2 ar
     3    1   30 1
     4    2    3 ar
     5    2   31 1
     6    3    4 ar
     7    3   27 1
     8    4    5 ar
     9    4   32 1
    10    5    6 ar
    11    5   33 1
    12    6    7 1
    13    7    8 am
    14    7   34 1
    15    8    9 2
    16    8   10 1
    17   10   11 1
    18   10   35 1
    19   10   36 1
    20   11   12 1
    21   12   26 1
    22   12   13 2
    23   13   14 1
    24   14   15 1
    25   14   23 1
    26   14   16 1
    27   16   17 2
    28   16   25 1
    29   17   22 ar
    30   17   18 ar
    31   18   19 ar
    32   18   37 1
    33   19   20 ar
    34   19   24 1
    35   20   21 ar
    36   20   38 1
    37   21   22 ar
    38   21   39 1
    39   22   23 2
    40   23   40 1
    41   25   26 2
    42   27   28 2
    43   27   29 1
