@<TRIPOS>MOLECULE
ZINC11286530
   67    72     0     0     0
SMALL
USER_CHARGES
7-[2-(methylBLAHyl)acetyl]-10-oxa-7-azabicyclo[4.4.0]deca-1,3,5-triene-9-carboxamide
@<TRIPOS>ATOM
      1 C1          5.9414    2.6216   -0.5306 C.3       1 <0>        -0.1880
      2 C2          5.7459    2.1490   -1.9725 C.3       1 <0>         0.0905
      3 H1          5.8492    2.9994   -2.6465 H         1 <0>         0.1503
      4 C3          4.3661    1.5631   -2.1203 C.ar      1 <0>        -0.1287
      5 C4          3.3038    2.2096   -1.5067 C.ar      1 <0>        -0.0902
      6 C5          2.0165    1.7108   -1.6188 C.ar      1 <0>         0.0680
      7 C6          1.7890    0.5556   -2.3585 C.ar      1 <0>         0.0845
      8 C7          2.8536   -0.0883   -2.9671 C.ar      1 <0>        -0.1000
      9 C8          4.1407    0.4126   -2.8473 C.ar      1 <0>        -0.0640
     10 C9          5.2672   -0.3248   -3.5199 C.3       1 <0>        -0.0345
     11 C10         5.6000   -1.6001   -2.7230 C.3       1 <0>        -0.1307
     12 C11         4.7940   -2.7140   -3.4373 C.3       1 <0>        -0.1234
     13 C12         4.9130   -2.3183   -4.9304 C.3       1 <0>        -0.1281
     14 C13         4.8309   -0.7772   -4.9219 C.3       1 <0>        -0.1135
     15 C14         6.5065    0.5601   -3.6196 C.3       1 <0>         0.0081
     16 C15         8.1143    1.7353   -2.2381 C.3       1 <0>        -0.0355
     17 C16         9.1412    0.6328   -2.2087 C.2       1 <0>         0.5052
     18 O1          8.7860   -0.5253   -2.1453 O.2       1 <0>        -0.4987
     19 N1         10.4542    0.9335   -2.2530 N.am      1 <0>        -0.5262
     20 C17        10.9126    2.3225   -2.4273 C.3       1 <0>         0.0638
     21 C18        12.0970    2.5428   -1.4754 C.3       1 <0>         0.0627
     22 H2         11.7689    2.4029   -0.4454 H         1 <0>         0.1105
     23 O2         13.1200    1.5936   -1.7855 O.3       1 <0>        -0.2764
     24 C19        12.7594    0.2882   -1.8983 C.ar      1 <0>         0.1074
     25 C20        11.4339   -0.0666   -2.1286 C.ar      1 <0>         0.0502
     26 C21        11.0814   -1.4019   -2.2521 C.ar      1 <0>        -0.1081
     27 C22        12.0483   -2.3832   -2.1306 C.ar      1 <0>        -0.1264
     28 C23        13.3644   -2.0329   -1.8939 C.ar      1 <0>        -0.0832
     29 C24        13.7220   -0.7026   -1.7777 C.ar      1 <0>        -0.1193
     30 C25        12.6338    3.9398   -1.6520 C.2       1 <0>         0.5236
     31 O3         13.7547    4.1087   -2.0834 O.2       1 <0>        -0.4909
     32 N2         11.8684    5.0015   -1.3307 N.am      1 <0>        -0.8466
     33 O4          0.5366    0.0536   -2.4893 O.3       1 <0>        -0.2989
     34 C26        -0.4939    0.5308   -1.6385 C.3       1 <0>         0.0224
     35 C27        -0.3428    2.0167   -1.3509 C.3       1 <0>         0.0236
     36 O5          0.9919    2.3519   -1.0049 O.3       1 <0>        -0.3009
     37 H3          5.9284    1.7614    0.1387 H         1 <0>         0.0864
     38 H4          6.8987    3.1355   -0.4433 H         1 <0>         0.0841
     39 H5          5.1363    3.3048   -0.2598 H         1 <0>         0.1148
     40 H6          3.4816    3.1097   -0.9370 H         1 <0>         0.1471
     41 H7          2.6797   -0.9875   -3.5395 H         1 <0>         0.1490
     42 H8          6.6682   -1.8118   -2.7703 H         1 <0>         0.0917
     43 H9          5.2756   -1.4986   -1.6874 H         1 <0>         0.0746
     44 H10         3.7523   -2.7032   -3.1167 H         1 <0>         0.0739
     45 H11         5.2439   -3.6908   -3.2596 H         1 <0>         0.0796
     46 H12         4.0881   -2.7410   -5.5039 H         1 <0>         0.0779
     47 H13         5.8685   -2.6471   -5.3392 H         1 <0>         0.0744
     48 H14         3.8075   -0.4564   -5.1165 H         1 <0>         0.0869
     49 H15         5.5018   -0.3623   -5.6741 H         1 <0>         0.0780
     50 H16         6.3321    1.3540   -4.3459 H         1 <0>         0.1357
     51 H17         7.3631   -0.0382   -3.9299 H         1 <0>         0.1400
     52 H18         8.2770    2.3601   -3.1163 H         1 <0>         0.1652
     53 H19         8.2075    2.3427   -1.3378 H         1 <0>         0.1660
     54 H20        11.2318    2.4801   -3.4575 H         1 <0>         0.1143
     55 H21        10.1053    3.0121   -2.1806 H         1 <0>         0.1108
     56 H22        10.0532   -1.6756   -2.4377 H         1 <0>         0.1708
     57 H23        11.7750   -3.4241   -2.2212 H         1 <0>         0.1358
     58 H24        14.1167   -2.8020   -1.7989 H         1 <0>         0.1399
     59 H25        14.7517   -0.4348   -1.5924 H         1 <0>         0.1450
     60 H26        10.9719    4.8664   -0.9857 H         1 <0>         0.3993
     61 H27        12.2139    5.9007   -1.4443 H         1 <0>         0.4181
     62 H28        -0.4609   -0.0185   -0.6976 H         1 <0>         0.0828
     63 H29        -1.4581    0.3574   -2.1162 H         1 <0>         0.1304
     64 H30        -0.6326    2.5814   -2.2370 H         1 <0>         0.0825
     65 H31        -1.0024    2.2881   -0.5267 H         1 <0>         0.1300
     66 N3          6.7637    1.1305   -2.2813 N.4       1 <0>        -0.3799
     67 H32         6.7108    0.3808   -1.5817 H         1 <0>         0.4363
@<TRIPOS>BOND
     1    1    2 1
     2    1   37 1
     3    1   38 1
     4    1   39 1
     5    2    3 1
     6    2    4 1
     7    2   66 1
     8    4    9 ar
     9    4    5 ar
    10    5    6 ar
    11    5   40 1
    12    6   36 1
    13    6    7 ar
    14    7    8 ar
    15    7   33 1
    16    8    9 ar
    17    8   41 1
    18    9   10 1
    19   10   14 1
    20   10   11 1
    21   10   15 1
    22   11   12 1
    23   11   42 1
    24   11   43 1
    25   12   13 1
    26   12   44 1
    27   12   45 1
    28   13   14 1
    29   13   46 1
    30   13   47 1
    31   14   48 1
    32   14   49 1
    33   15   50 1
    34   15   51 1
    35   15   66 1
    36   16   17 1
    37   16   52 1
    38   16   53 1
    39   16   66 1
    40   17   18 2
    41   17   19 am
    42   19   25 1
    43   19   20 1
    44   20   21 1
    45   20   54 1
    46   20   55 1
    47   21   22 1
    48   21   23 1
    49   21   30 1
    50   23   24 1
    51   24   29 ar
    52   24   25 ar
    53   25   26 ar
    54   26   27 ar
    55   26   56 1
    56   27   28 ar
    57   27   57 1
    58   28   29 ar
    59   28   58 1
    60   29   59 1
    61   30   31 2
    62   30   32 am
    63   32   60 1
    64   32   61 1
    65   33   34 1
    66   34   35 1
    67   34   62 1
    68   34   63 1
    69   35   36 1
    70   35   64 1
    71   35   65 1
    72   66   67 1
