@<TRIPOS>MOLECULE
ZINC34897474
   41    42     0     0     0
SMALL
USER_CHARGES

@<TRIPOS>ATOM
      1 C1         -0.3872    1.4838   -0.2103 C.3       1 <0>        -0.1512
      2 C2         -0.1303   -0.0186   -0.0771 C.3       1 <0>        -0.1419
      3 C3          0.7182   -0.4975   -1.2568 C.3       1 <0>        -0.1311
      4 C4          0.8495   -2.0210   -1.2054 C.3       1 <0>        -0.0705
      5 H1         -0.1418   -2.4712   -1.1525 H         1 <0>         0.1195
      6 C5          1.5705   -2.5157   -2.4608 C.3       1 <0>        -0.0355
      7 H2          2.5969   -2.1519   -2.4129 H         1 <0>         0.0852
      8 C6          0.9486   -1.9636   -3.7221 C.3       1 <0>        -0.1144
      9 C7          0.0036   -2.9683   -4.3780 C.3       1 <0>        -0.0898
     10 H3         -0.4057   -2.5432   -5.2945 H         1 <0>         0.0787
     11 C8          0.8012   -4.2376   -4.7079 C.3       1 <0>        -0.0888
     12 C9          1.3237   -4.8021   -3.4123 C.2       1 <0>        -0.1298
     13 C10         1.6202   -4.0140   -2.4163 C.2       1 <0>        -0.0563
     14 C11         2.0111   -4.6360   -1.1237 C.2       1 <0>        -0.1288
     15 C12         2.0141   -3.8807    0.0034 C.2       1 <0>         0.2386
     16 C13         1.6611   -2.4237    0.0263 C.3       1 <0>         0.2058
     17 C14         2.9013   -1.6317    0.0643 C.1       1 <0>         0.2012
     18 N1          3.8584   -1.0205    0.0936 N.1       1 <0>        -0.3576
     19 C15         0.8728   -2.1367    1.2359 C.1       1 <0>         0.2016
     20 N2          0.2645   -1.9152    2.1693 N.1       1 <0>        -0.3577
     21 N3          2.3546   -4.4811    1.1829 N.pl3     1 <0>        -0.8425
     22 C16         2.3804   -6.0185   -1.0688 C.1       1 <0>         0.2620
     23 N4          2.6733   -7.1152   -1.0252 N.1       1 <0>        -0.4249
     24 C17        -1.1351   -3.3098   -3.4149 C.3       1 <0>        -0.1565
     25 H4          0.5640    2.0161   -0.2135 H         1 <0>         0.0547
     26 H5         -0.9169    1.6806   -1.1424 H         1 <0>         0.0592
     27 H6         -0.9917    1.8249    0.6301 H         1 <0>         0.0563
     28 H7          0.3994   -0.2154    0.8550 H         1 <0>         0.0602
     29 H8         -1.0814   -0.5510   -0.0739 H         1 <0>         0.0701
     30 H9          0.2390   -0.2054   -2.1912 H         1 <0>         0.0991
     31 H10         1.7084   -0.0453   -1.1994 H         1 <0>         0.0720
     32 H11         0.3908   -1.0599   -3.4765 H         1 <0>         0.0829
     33 H12         1.7407   -1.7094   -4.4263 H         1 <0>         0.0735
     34 H13         0.1516   -4.9662   -5.1928 H         1 <0>         0.0754
     35 H14         1.6346   -3.9896   -5.3653 H         1 <0>         0.0793
     36 H15         1.4399   -5.8707   -3.3070 H         1 <0>         0.1100
     37 H16         2.5858   -5.4230    1.1987 H         1 <0>         0.4130
     38 H17         2.3652   -3.9652    2.0044 H         1 <0>         0.4045
     39 H18        -1.6867   -2.4026   -3.1682 H         1 <0>         0.0552
     40 H19        -1.8071   -4.0268   -3.8864 H         1 <0>         0.0547
     41 H20        -0.7226   -3.7432   -2.5038 H         1 <0>         0.0648
@<TRIPOS>BOND
     1    1    2 1
     2    1   25 1
     3    1   26 1
     4    1   27 1
     5    2    3 1
     6    2   28 1
     7    2   29 1
     8    3    4 1
     9    3   30 1
    10    3   31 1
    11    4    5 1
    12    4   16 1
    13    4    6 1
    14    6    7 1
    15    6   13 1
    16    6    8 1
    17    8    9 1
    18    8   32 1
    19    8   33 1
    20    9   10 1
    21    9   11 1
    22    9   24 1
    23   11   12 1
    24   11   34 1
    25   11   35 1
    26   12   13 2
    27   12   36 1
    28   13   14 1
    29   14   15 2
    30   14   22 1
    31   15   16 1
    32   15   21 1
    33   16   17 1
    34   16   19 1
    35   17   18 3
    36   19   20 3
    37   21   37 1
    38   21   38 1
    39   22   23 3
    40   24   39 1
    41   24   40 1
    42   24   41 1
