@<TRIPOS>MOLECULE
ZINC38018844
   38    39     0     0     0
SMALL
USER_CHARGES

@<TRIPOS>ATOM
      1 C1         -0.0187    1.5258    0.0104 C.3       1 <0>        -0.1467
      2 C2          0.0021   -0.0041    0.0020 C.3       1 <0>        -0.1136
      3 C3          0.7421   -0.5109    1.2415 C.3       1 <0>        -0.1429
      4 C4         -1.4333   -0.5336    0.0129 C.3       1 <0>         0.1129
      5 N1         -1.4164   -1.9929   -0.1155 N.am      1 <0>        -0.5292
      6 C5         -1.4502   -2.5704   -1.3645 C.2       1 <0>         0.3922
      7 C6         -1.4335   -3.9344   -1.4737 C.2       1 <0>        -0.0715
      8 C7         -1.3823   -4.7118   -0.3027 C.2       1 <0>         0.5617
      9 O1         -1.3662   -5.9292   -0.3747 O.2       1 <0>        -0.5245
     10 N2         -1.3506   -4.1033    0.8992 N.am      1 <0>        -0.6566
     11 H1         -1.3148   -4.6380    1.7077 H         1 <0>         0.4338
     12 C8         -1.3624   -2.7610    0.9881 C.2       1 <0>         0.7035
     13 O2         -1.3285   -2.2334    2.0833 O.2       1 <0>        -0.5356
     14 N3         -1.4679   -4.5531   -2.7449 N.pl3     1 <0>        -0.7368
     15 C9         -1.4497   -6.0142   -2.8492 C.3       1 <0>         0.2347
     16 C10        -1.4935   -6.4148   -4.3013 C.2       1 <0>        -0.1468
     17 C11        -0.4660   -6.6313   -5.1581 C.2       1 <0>        -0.1428
     18 C12        -0.7457   -6.9955   -6.4622 C.2       1 <0>        -0.1116
     19 C13        -2.0404   -7.1254   -6.8449 C.2       1 <0>        -0.1775
     20 S1         -2.9121   -6.7349   -5.3367 S.3       1 <0>         0.1080
     21 Br1        -2.7402   -7.6034   -8.5354 Br        1 <0>         0.0389
     22 N4         -1.5006   -1.7837   -2.4925 N.pl3     1 <0>        -0.8441
     23 H2          1.0039    1.9031    0.0027 H         1 <0>         0.0641
     24 H3         -0.5459    1.8868   -0.8726 H         1 <0>         0.0576
     25 H4         -0.5289    1.8773    0.9072 H         1 <0>         0.0621
     26 H5          0.5123   -0.3556   -0.8948 H         1 <0>         0.0746
     27 H6          0.7568   -1.6008    1.2356 H         1 <0>         0.0499
     28 H7          1.7647   -0.1336    1.2338 H         1 <0>         0.0550
     29 H8          0.2319   -0.1594    2.1383 H         1 <0>         0.0660
     30 H9         -1.9156   -0.2570    0.9504 H         1 <0>         0.1094
     31 H10        -1.9862   -0.1019   -0.8214 H         1 <0>         0.0902
     32 H11        -1.5035   -4.0100   -3.5478 H         1 <0>         0.3936
     33 H12        -0.5377   -6.3997   -2.3933 H         1 <0>         0.0874
     34 H13        -2.3164   -6.4262   -2.3323 H         1 <0>         0.0784
     35 H14         0.5560   -6.5205   -4.8272 H         1 <0>         0.1430
     36 H15         0.0545   -7.1736   -7.1653 H         1 <0>         0.1421
     37 H16        -1.5125   -0.8173   -2.4097 H         1 <0>         0.4053
     38 H17        -1.5242   -2.1956   -3.3704 H         1 <0>         0.4160
@<TRIPOS>BOND
     1    1    2 1
     2    1   23 1
     3    1   24 1
     4    1   25 1
     5    2    3 1
     6    2    4 1
     7    2   26 1
     8    3   27 1
     9    3   28 1
    10    3   29 1
    11    4    5 1
    12    4   30 1
    13    4   31 1
    14    5   12 am
    15    5    6 1
    16    6    7 2
    17    6   22 1
    18    7    8 1
    19    7   14 1
    20    8    9 2
    21    8   10 am
    22   10   11 1
    23   10   12 am
    24   12   13 2
    25   14   15 1
    26   14   32 1
    27   15   16 1
    28   15   33 1
    29   15   34 1
    30   16   20 1
    31   16   17 2
    32   17   18 1
    33   17   35 1
    34   18   19 2
    35   18   36 1
    36   19   20 1
    37   19   21 1
    38   22   37 1
    39   22   38 1
