@<TRIPOS>MOLECULE
ZINC58362457
   46    49     0     0     0
SMALL
USER_CHARGES

@<TRIPOS>ATOM
      1 C1         -0.0187    1.5258    0.0104 C.3       1 <0>        -0.1630
      2 C2          0.0021   -0.0041    0.0020 C.3       1 <0>         0.1024
      3 N1         -1.3723   -0.5112    0.0124 N.pl3     1 <0>        -0.4557
      4 C3         -2.1145   -0.7890    1.1357 C.ar      1 <0>         0.1220
      5 C4         -1.8495   -0.6961    2.4994 C.ar      1 <0>        -0.1336
      6 C5         -2.8167   -1.0558    3.4106 C.ar      1 <0>        -0.0808
      7 C6         -4.0577   -1.5120    2.9835 C.ar      1 <0>        -0.1498
      8 C7         -4.3408   -1.6122    1.6526 C.ar      1 <0>        -0.0550
      9 C8         -3.3735   -1.2514    0.7052 C.ar      1 <0>        -0.1261
     10 C9         -3.3562   -1.2396   -0.7102 C.2       1 <0>        -0.0908
     11 C10        -2.1381   -0.7832   -1.1053 C.2       1 <0>         0.0252
     12 C11        -1.7039   -0.6104   -2.4979 C.2       1 <0>         0.5366
     13 O1         -2.4618   -0.8814   -3.4090 O.2       1 <0>        -0.4851
     14 O2         -0.4646   -0.1512   -2.7658 O.3       1 <0>        -0.3383
     15 C12        -0.1094   -0.0077   -4.1424 C.3       1 <0>         0.1187
     16 C13         1.3010    0.5131   -4.2457 C.2       1 <0>         0.2072
     17 C14         2.2866   -0.2716   -4.8119 C.2       1 <0>        -0.3111
     18 C15         3.5891    0.2339   -4.8967 C.2       1 <0>         0.5104
     19 O3          4.4826   -0.4347   -5.3919 O.2       1 <0>        -0.5251
     20 N2          3.8417    1.4726   -4.4226 N.am      1 <0>        -0.4242
     21 C16         5.1038    1.9786   -4.4980 C.2       1 <0>         0.0914
     22 C17         5.3812    3.2164   -4.0301 C.2       1 <0>        -0.1283
     23 C18         4.3667    3.9969   -3.4583 C.2       1 <0>        -0.0270
     24 C19         3.1004    3.4998   -3.3781 C.2       1 <0>        -0.1318
     25 C20         2.8311    2.2099   -3.8714 C.2       1 <0>         0.3921
     26 N3          1.5931    1.7244   -3.7986 N.2       1 <0>        -0.5274
     27 C21         6.7844    3.7581   -4.1229 C.3       1 <0>        -0.1091
     28 H1          1.0039    1.9031    0.0027 H         1 <0>         0.0739
     29 H2         -0.5459    1.8868   -0.8726 H         1 <0>         0.0670
     30 H3         -0.5289    1.8773    0.9072 H         1 <0>         0.0590
     31 H4          0.5123   -0.3556   -0.8948 H         1 <0>         0.1020
     32 H5          0.5293   -0.3651    0.8851 H         1 <0>         0.0876
     33 H6         -0.8877   -0.3433    2.8414 H         1 <0>         0.1220
     34 H7         -2.6088   -0.9829    4.4679 H         1 <0>         0.1287
     35 H8         -4.8050   -1.7904    3.7118 H         1 <0>         0.1263
     36 H9         -5.3082   -1.9679    1.3302 H         1 <0>         0.1274
     37 H10        -4.1667   -1.5358   -1.3595 H         1 <0>         0.1600
     38 H11        -0.1762   -0.9763   -4.6378 H         1 <0>         0.0971
     39 H12        -0.7918    0.6938   -4.6225 H         1 <0>         0.0982
     40 H13         2.0561   -1.2594   -5.1828 H         1 <0>         0.1620
     41 H14         5.8920    1.3844   -4.9362 H         1 <0>         0.1826
     42 H15         4.5873    4.9854   -3.0835 H         1 <0>         0.1561
     43 H16         2.3100    4.0911   -2.9399 H         1 <0>         0.1698
     44 H17         6.9084    4.2858   -5.0686 H         1 <0>         0.0813
     45 H18         6.9637    4.4461   -3.2967 H         1 <0>         0.0797
     46 H19         7.4961    2.9342   -4.0706 H         1 <0>         0.0756
@<TRIPOS>BOND
     1    1    2 1
     2    1   28 1
     3    1   29 1
     4    1   30 1
     5    2    3 1
     6    2   31 1
     7    2   32 1
     8    3   11 1
     9    3    4 1
    10    4    9 ar
    11    4    5 ar
    12    5    6 ar
    13    5   33 1
    14    6    7 ar
    15    6   34 1
    16    7    8 ar
    17    7   35 1
    18    8    9 ar
    19    8   36 1
    20    9   10 1
    21   10   11 2
    22   10   37 1
    23   11   12 1
    24   12   13 2
    25   12   14 1
    26   14   15 1
    27   15   16 1
    28   15   38 1
    29   15   39 1
    30   16   26 1
    31   16   17 2
    32   17   18 1
    33   17   40 1
    34   18   19 2
    35   18   20 am
    36   20   25 1
    37   20   21 1
    38   21   22 2
    39   21   41 1
    40   22   23 1
    41   22   27 1
    42   23   24 2
    43   23   42 1
    44   24   25 1
    45   24   43 1
    46   25   26 2
    47   27   44 1
    48   27   45 1
    49   27   46 1
