@<TRIPOS>MOLECULE
ZINC43066991
   57    58     0     0     0
SMALL
USER_CHARGES

@<TRIPOS>ATOM
      1 C1          3.2977   -2.8274   -0.6921 C.3       1 <0>        -0.1889
      2 C2          2.6213   -1.9703    0.3797 C.3       1 <0>         0.0794
      3 H1          2.9685   -2.2793    1.3656 H         1 <0>         0.1160
      4 C3          2.9720   -0.4954    0.1524 C.3       1 <0>         0.0910
      5 N1          2.3335   -0.0538   -1.0977 N.pl3     1 <0>        -1.0071
      6 C4          0.8987   -0.3277   -1.2757 C.3       1 <0>         0.0881
      7 C5          0.6491   -1.8108   -0.9789 C.3       1 <0>         0.0721
      8 H2          1.1238   -2.4208   -1.7474 H         1 <0>         0.0693
      9 O1          1.2036   -2.1359    0.2991 O.3       1 <0>        -0.3670
     10 C6         -0.8564   -2.0833   -0.9676 C.3       1 <0>        -0.1458
     11 S1          3.2038    0.7286   -2.2693 S.o2      1 <0>         2.7804
     12 O2          4.5421    0.2637   -2.1596 O.2       1 <0>        -0.9677
     13 O3          2.4555    0.6191   -3.4723 O.2       1 <0>        -0.9675
     14 N2          3.2269    2.3358   -1.8709 N.pl3     1 <0>        -1.0044
     15 C7          2.1185    3.2189   -2.2600 C.3       1 <0>         0.1071
     16 C8          1.5746    3.9064   -1.0016 C.3       1 <0>         0.1166
     17 N3          2.7037    4.4751   -0.2521 N.am      1 <0>        -0.6277
     18 C9          3.8121    3.5920    0.1371 C.3       1 <0>         0.0985
     19 C10         4.3533    2.9033   -1.1165 C.3       1 <0>         0.1040
     20 C11         2.7224    5.7831    0.0722 C.2       1 <0>         0.7103
     21 O4          1.8495    6.5237   -0.3376 O.2       1 <0>        -0.5842
     22 N4          3.7089    6.2703    0.8507 N.am      1 <0>        -0.7401
     23 C12         3.6708    7.6663    1.2934 C.3       1 <0>         0.1615
     24 H3          3.2376    8.2850    0.5075 H         1 <0>         0.0902
     25 C13         2.8174    7.7771    2.5584 C.3       1 <0>        -0.1662
     26 C14         5.0926    8.1450    1.5939 C.3       1 <0>        -0.1031
     27 C15         5.9461    8.0342    0.3289 C.3       1 <0>        -0.1470
     28 C16         5.0529    9.6029    2.0562 C.3       1 <0>        -0.1481
     29 H4          2.8882   -2.5758   -1.6704 H         1 <0>         0.0583
     30 H5          4.3707   -2.6355   -0.6871 H         1 <0>         0.0737
     31 H6          3.1162   -3.8815   -0.4824 H         1 <0>         0.0686
     32 H7          2.6014    0.1026    0.9850 H         1 <0>         0.0779
     33 H8          4.0532   -0.3833    0.0719 H         1 <0>         0.0990
     34 H9          0.3194    0.2872   -0.5869 H         1 <0>         0.0791
     35 H10         0.6070   -0.1045   -2.3020 H         1 <0>         0.1025
     36 H11        -1.2785   -1.8319   -1.9406 H         1 <0>         0.0757
     37 H12        -1.0332   -3.1380   -0.7565 H         1 <0>         0.0691
     38 H13        -1.3302   -1.4743   -0.1977 H         1 <0>         0.0667
     39 H14         2.4792    3.9714   -2.9612 H         1 <0>         0.0818
     40 H15         1.3281    2.6303   -2.7258 H         1 <0>         0.0991
     41 H16         0.8874    4.7026   -1.2877 H         1 <0>         0.1084
     42 H17         1.0546    3.1762   -0.3815 H         1 <0>         0.0711
     43 H18         4.6025    4.1806    0.6029 H         1 <0>         0.0890
     44 H19         3.4514    2.8394    0.8382 H         1 <0>         0.0759
     45 H20         5.0384    2.1064   -0.8274 H         1 <0>         0.1042
     46 H21         4.8768    3.6329   -1.7344 H         1 <0>         0.0806
     47 H22         4.4440    5.6967    1.1179 H         1 <0>         0.3932
     48 H23         2.7891    8.8158    2.8878 H         1 <0>         0.0700
     49 H24         1.8045    7.4361    2.3444 H         1 <0>         0.0594
     50 H25         3.2506    7.1584    3.3443 H         1 <0>         0.0552
     51 H26         5.5258    7.5263    2.3798 H         1 <0>         0.0741
     52 H27         6.9590    8.3752    0.5429 H         1 <0>         0.0577
     53 H28         5.9744    6.9955   -0.0005 H         1 <0>         0.0525
     54 H29         5.5129    8.6529   -0.4570 H         1 <0>         0.0568
     55 H30         4.4449    9.6819    2.9574 H         1 <0>         0.0617
     56 H31         6.0658    9.9440    2.2702 H         1 <0>         0.0601
     57 H32         4.6197   10.2217    1.2703 H         1 <0>         0.0587
@<TRIPOS>BOND
     1    1    2 1
     2    1   29 1
     3    1   30 1
     4    1   31 1
     5    2    3 1
     6    2    9 1
     7    2    4 1
     8    4    5 1
     9    4   32 1
    10    4   33 1
    11    5    6 1
    12    5   11 1
    13    6    7 1
    14    6   34 1
    15    6   35 1
    16    7    8 1
    17    7    9 1
    18    7   10 1
    19   10   36 1
    20   10   37 1
    21   10   38 1
    22   11   12 2
    23   11   13 2
    24   11   14 1
    25   14   19 1
    26   14   15 1
    27   15   16 1
    28   15   39 1
    29   15   40 1
    30   16   17 1
    31   16   41 1
    32   16   42 1
    33   17   18 1
    34   17   20 am
    35   18   19 1
    36   18   43 1
    37   18   44 1
    38   19   45 1
    39   19   46 1
    40   20   21 2
    41   20   22 am
    42   22   23 1
    43   22   47 1
    44   23   24 1
    45   23   25 1
    46   23   26 1
    47   25   48 1
    48   25   49 1
    49   25   50 1
    50   26   27 1
    51   26   28 1
    52   26   51 1
    53   27   52 1
    54   27   53 1
    55   27   54 1
    56   28   55 1
    57   28   56 1
    58   28   57 1
