@<TRIPOS>MOLECULE
ZINC07749588
   53    55     0     0     0
SMALL
USER_CHARGES
N-(4-fluoro-2-methyl-phenyl)-2-(7,7,9-trimethyl-1,3-dioxo-2,4-diazaspiro[4.5]dec-2-yl)-acetamide
@<TRIPOS>ATOM
      1 C1         -0.2668    5.8400    2.5335 C.3       1 <0>        -0.1180
      2 C2         -1.3494    4.9690    3.1168 C.ar      1 <0>        -0.0854
      3 C3         -2.0893    5.4148    4.1948 C.ar      1 <0>        -0.1341
      4 C4         -3.0802    4.6126    4.7347 C.ar      1 <0>         0.0867
      5 C5         -3.3356    3.3643    4.1918 C.ar      1 <0>        -0.1369
      6 C6         -2.6018    2.9172    3.1108 C.ar      1 <0>        -0.0969
      7 C7         -1.6075    3.7203    2.5678 C.ar      1 <0>         0.1366
      8 N1         -0.8622    3.2688    1.4717 N.am      1 <0>        -0.6631
      9 C8         -0.7258    1.9467    1.2481 C.2       1 <0>         0.5019
     10 O1         -1.1625    1.1479    2.0496 O.2       1 <0>        -0.5021
     11 C9         -0.0307    1.4609    0.0024 C.3       1 <0>         0.1021
     12 N2         -0.0119   -0.0038   -0.0066 N.am      1 <0>        -0.5660
     13 C10        -0.9798   -0.7708   -0.5532 C.2       1 <0>         0.5378
     14 O2         -2.0120   -0.3681   -1.0466 O.2       1 <0>        -0.4492
     15 C11        -0.5177   -2.1986   -0.3917 C.3       1 <0>         0.1403
     16 C12        -1.5188   -2.9976    0.4309 C.3       1 <0>        -0.1081
     17 C13        -2.7663   -3.2847   -0.4065 C.3       1 <0>        -0.0954
     18 H1         -3.2099   -2.3514   -0.7442 H         1 <0>         0.0893
     19 C14        -2.3607   -4.1454   -1.6009 C.3       1 <0>        -0.1035
     20 C15        -1.3685   -3.4091   -2.4933 C.3       1 <0>        -0.0545
     21 C16        -0.1891   -2.8444   -1.7220 C.3       1 <0>        -0.1021
     22 C17        -0.8236   -4.4222   -3.5242 C.3       1 <0>        -0.1459
     23 C18        -2.0859   -2.3041   -3.2745 C.3       1 <0>        -0.1593
     24 C19        -3.7847   -4.0470    0.4470 C.3       1 <0>        -0.1467
     25 N3          0.7344   -2.0650    0.3869 N.am      1 <0>        -0.7220
     26 C20         0.9587   -0.7485    0.5334 C.2       1 <0>         0.7095
     27 O3          1.9341   -0.2849    1.0926 O.2       1 <0>        -0.5395
     28 F1         -3.7992    5.0482    5.7922 F         1 <0>        -0.1386
     29 H2         -0.6903    6.4726    1.7534 H         1 <0>         0.0779
     30 H3          0.1581    6.4661    3.3182 H         1 <0>         0.0774
     31 H4          0.5150    5.2114    2.1071 H         1 <0>         0.0676
     32 H5         -1.8918    6.3880    4.6194 H         1 <0>         0.1406
     33 H6         -4.1090    2.7401    4.6144 H         1 <0>         0.1393
     34 H7         -2.8008    1.9435    2.6882 H         1 <0>         0.1534
     35 H8         -0.4441    3.9075    0.8732 H         1 <0>         0.4149
     36 H9          0.9920    1.8375   -0.0134 H         1 <0>         0.1328
     37 H10        -0.5648    1.8228   -0.8762 H         1 <0>         0.1324
     38 H11        -1.0656   -3.9397    0.7421 H         1 <0>         0.0872
     39 H12        -1.8009   -2.4257    1.3164 H         1 <0>         0.0768
     40 H13        -1.9059   -5.0716   -1.2390 H         1 <0>         0.0653
     41 H14        -3.2516   -4.4003   -2.1805 H         1 <0>         0.0703
     42 H15         0.3220   -2.1006   -2.3544 H         1 <0>         0.0708
     43 H16         0.5396   -3.6522   -1.5486 H         1 <0>         0.0858
     44 H17        -1.6486   -4.8155   -4.1181 H         1 <0>         0.0603
     45 H18        -0.1088   -3.9247   -4.1797 H         1 <0>         0.0553
     46 H19        -0.3289   -5.2412   -3.0021 H         1 <0>         0.0556
     47 H20        -2.5330   -1.5969   -2.5759 H         1 <0>         0.0794
     48 H21        -1.3687   -1.7837   -3.9093 H         1 <0>         0.0504
     49 H22        -2.8664   -2.7454   -3.8943 H         1 <0>         0.0573
     50 H23        -4.0574   -3.4435    1.3127 H         1 <0>         0.0561
     51 H24        -4.6749   -4.2531   -0.1473 H         1 <0>         0.0596
     52 H25        -3.3464   -4.9868    0.7827 H         1 <0>         0.0557
     53 H26         1.2758   -2.7959    0.7196 H         1 <0>         0.4410
@<TRIPOS>BOND
     1    1    2 1
     2    1   29 1
     3    1   30 1
     4    1   31 1
     5    2    7 ar
     6    2    3 ar
     7    3    4 ar
     8    3   32 1
     9    4    5 ar
    10    4   28 1
    11    5    6 ar
    12    5   33 1
    13    6    7 ar
    14    6   34 1
    15    7    8 1
    16    8    9 am
    17    8   35 1
    18    9   10 2
    19    9   11 1
    20   11   12 1
    21   11   36 1
    22   11   37 1
    23   12   26 am
    24   12   13 am
    25   13   14 2
    26   13   15 1
    27   15   21 1
    28   15   16 1
    29   15   25 1
    30   16   17 1
    31   16   38 1
    32   16   39 1
    33   17   18 1
    34   17   19 1
    35   17   24 1
    36   19   20 1
    37   19   40 1
    38   19   41 1
    39   20   21 1
    40   20   22 1
    41   20   23 1
    42   21   42 1
    43   21   43 1
    44   22   44 1
    45   22   45 1
    46   22   46 1
    47   23   47 1
    48   23   48 1
    49   23   49 1
    50   24   50 1
    51   24   51 1
    52   24   52 1
    53   25   26 am
    54   25   53 1
    55   26   27 2
