@<TRIPOS>MOLECULE
ZINC20806682
   48    51     0     0     0
SMALL
USER_CHARGES
2-[[4-amino-5-[(N'E)-N'-[(2-hydroxy-1-naphthyl)methylene]hydrazino]-1,2,4-triazol-3-yl]sulfanyl]-1-phenyl-ethanone
@<TRIPOS>ATOM
      1 C1         -1.7314   19.3491    0.1257 C.ar      1 <0>        -0.0827
      2 C2         -3.1154   19.3494    0.1380 C.ar      1 <0>        -0.1323
      3 C3         -3.8088   18.1576    0.1371 C.ar      1 <0>        -0.0562
      4 C4         -3.1098   16.9463    0.1242 C.ar      1 <0>        -0.1665
      5 C5         -1.7113   16.9543    0.1182 C.ar      1 <0>        -0.0706
      6 C6         -1.0325   18.1545    0.1130 C.ar      1 <0>        -0.1313
      7 C7         -3.8422   15.6698    0.1231 C.2       1 <0>         0.4204
      8 O1         -5.0546   15.6664    0.1333 O.2       1 <0>        -0.4345
      9 C8         -3.0851   14.3668    0.1092 C.3       1 <0>        -0.1658
     10 S1         -4.2601   12.9848    0.1113 S.3       1 <0>         0.0459
     11 C9         -3.2337   11.5527    0.0944 C.2       1 <0>         0.1757
     12 N1         -1.9221   11.5443    0.0827 N.2       1 <0>        -0.3064
     13 N2         -1.4977   10.2091    0.0761 N.2       1 <0>        -0.3087
     14 C10        -2.5635    9.4454    0.0761 C.2       1 <0>         0.4914
     15 N3         -3.6643   10.2563    0.0906 N.pl3     1 <0>        -0.2649
     16 N4         -4.9662    9.8427    0.0992 N.3       1 <0>        -0.7784
     17 N5         -2.5726    8.0585    0.0688 N.pl3     1 <0>        -0.5664
     18 N6         -1.3640    7.3501    0.0539 N.2       1 <0>        -0.1680
     19 C11        -1.3725    6.0497    0.0471 C.2       1 <0>         0.0969
     20 C12        -0.1047    5.3066    0.0315 C.ar      1 <0>        -0.1159
     21 C13        -0.0958    3.8449    0.0236 C.ar      1 <0>         0.0153
     22 C14        -1.2858    3.1072    0.0306 C.ar      1 <0>        -0.1257
     23 C15        -1.2341    1.7451    0.0174 C.ar      1 <0>        -0.0948
     24 C16        -0.0126    1.0758    0.0080 C.ar      1 <0>        -0.1351
     25 C17         1.1633    1.7623    0.0004 C.ar      1 <0>        -0.0846
     26 C18         1.1479    3.1677    0.0081 C.ar      1 <0>        -0.0912
     27 C19         2.3414    3.9105    0.0002 C.ar      1 <0>        -0.0470
     28 C20         2.3149    5.2699    0.0081 C.ar      1 <0>        -0.1997
     29 C21         1.1162    5.9807    0.0234 C.ar      1 <0>         0.2064
     30 O2          1.1372    7.3387    0.0308 O.3       1 <0>        -0.4650
     31 H1         -1.1940   20.2859    0.1265 H         1 <0>         0.1297
     32 H2         -3.6537   20.2857    0.1479 H         1 <0>         0.1317
     33 H3         -4.8887   18.1595    0.1466 H         1 <0>         0.1358
     34 H4         -1.1646   16.0230    0.1131 H         1 <0>         0.1355
     35 H5          0.0474   18.1625    0.1035 H         1 <0>         0.1323
     36 H6         -2.4602   14.3155   -0.7946 H         1 <0>         0.1354
     37 H7         -2.4449   14.3052    1.0016 H         1 <0>         0.1354
     38 H8         -5.2020    8.7683    0.0950 H         1 <0>         0.4363
     39 H9         -5.7788   10.5841    0.1103 H         1 <0>         0.4483
     40 H10        -3.5288    7.5147    0.0747 H         1 <0>         0.4019
     41 H11        -2.3287    5.5059    0.0530 H         1 <0>         0.1182
     42 H12        -2.2392    3.6144    0.0428 H         1 <0>         0.1252
     43 H13        -2.1527    1.1771    0.0188 H         1 <0>         0.1247
     44 H14         0.0021   -0.0041    0.0020 H         1 <0>         0.1242
     45 H15         2.1028    1.2297   -0.0117 H         1 <0>         0.1288
     46 H16         3.2906    3.3953   -0.0116 H         1 <0>         0.1324
     47 H17         3.2480    5.8136    0.0024 H         1 <0>         0.1331
     48 H18         2.0982    7.8739    0.0245 H         1 <0>         0.4310
@<TRIPOS>BOND
     1    1    6 ar
     2    1    2 ar
     3    1   31 1
     4    2    3 ar
     5    2   32 1
     6    3    4 ar
     7    3   33 1
     8    4    5 ar
     9    4    7 1
    10    5    6 ar
    11    5   34 1
    12    6   35 1
    13    7    8 2
    14    7    9 1
    15    9   10 1
    16    9   36 1
    17    9   37 1
    18   10   11 1
    19   11   15 1
    20   11   12 2
    21   12   13 1
    22   13   14 2
    23   14   15 1
    24   14   17 1
    25   15   16 1
    26   16   38 1
    27   16   39 1
    28   17   18 1
    29   17   40 1
    30   18   19 2
    31   19   20 1
    32   19   41 1
    33   20   29 ar
    34   20   21 ar
    35   21   26 ar
    36   21   22 ar
    37   22   23 ar
    38   22   42 1
    39   23   24 ar
    40   23   43 1
    41   24   25 ar
    42   24   44 1
    43   25   26 ar
    44   25   45 1
    45   26   27 ar
    46   27   28 ar
    47   27   46 1
    48   28   29 ar
    49   28   47 1
    50   29   30 1
    51   30   48 1
