@<TRIPOS>MOLECULE
ZINC48132305
   47    50     0     0     0
SMALL
USER_CHARGES

@<TRIPOS>ATOM
      1 C1         -0.1202    1.4739   -0.4358 C.ar      1 <0>         0.0196
      2 C2          1.1153    2.0927   -0.3695 C.ar      1 <0>        -0.2435
      3 C3          2.2580    1.3546   -0.6599 C.ar      1 <0>         0.4316
      4 N1          2.1677    0.0768   -0.9955 N.ar      1 <0>        -0.5386
      5 C4          1.0030   -0.5391   -1.0668 C.ar      1 <0>         0.2130
      6 C5         -0.1713    0.1329   -0.7916 C.ar      1 <0>        -0.3030
      7 C6         -1.4952   -0.5822   -0.8762 C.3       1 <0>         0.5207
      8 F1         -2.0079   -0.4626   -2.1723 F         1 <0>        -0.1772
      9 F2         -1.3149   -1.9351   -0.5690 F         1 <0>        -0.1768
     10 F3         -2.3918   -0.0128    0.0344 F         1 <0>        -0.1783
     11 N2          3.5059    1.9639   -0.5976 N.pl3     1 <0>        -0.6002
     12 C7          4.7281    1.1953   -0.8719 C.3       1 <0>         0.1057
     13 C8          5.5112    1.9011   -1.9858 C.3       1 <0>         0.1135
     14 N3          5.6319    3.3255   -1.6449 N.am      1 <0>        -0.6217
     15 C9          4.4097    4.0942   -1.3705 C.3       1 <0>         0.0933
     16 C10         3.6262    3.3897   -0.2622 C.3       1 <0>         0.1027
     17 C11         6.8418    3.9163   -1.5845 C.2       1 <0>         0.7117
     18 O1          7.8329    3.3101   -1.9433 O.2       1 <0>        -0.5603
     19 N4          6.9531    5.1789   -1.1264 N.am      1 <0>        -0.6744
     20 C12         8.1717    5.8602   -1.2400 C.ar      1 <0>         0.1086
     21 C13         8.2056    7.2533   -1.2224 C.ar      1 <0>        -0.0886
     22 C14         9.4315    7.8836   -1.3375 C.ar      1 <0>        -0.1299
     23 C15        10.5803    7.1125   -1.4659 C.ar      1 <0>         0.3354
     24 N5         10.5110    5.7916   -1.4788 N.ar      1 <0>        -0.4772
     25 C16         9.3611    5.1566   -1.3657 C.ar      1 <0>         0.1171
     26 N6         11.8253    7.7409   -1.5835 N.pl3     1 <0>        -0.3319
     27 C17        13.0240    7.1402   -1.7199 C.2       1 <0>         0.2917
     28 N7         13.9378    8.0733   -1.7979 N.2       1 <0>        -0.5397
     29 C18        13.3662    9.2744   -1.7157 C.2       1 <0>         0.2157
     30 N8         12.0738    9.1232   -1.5889 N.2       1 <0>        -0.3133
     31 H1         -1.0242    2.0205   -0.2115 H         1 <0>         0.1470
     32 H2          1.1916    3.1348   -0.0963 H         1 <0>         0.1446
     33 H3          0.9678   -1.5823   -1.3440 H         1 <0>         0.1693
     34 H4          5.3388    1.1452    0.0295 H         1 <0>         0.0731
     35 H5          4.4624    0.1881   -1.1932 H         1 <0>         0.1157
     36 H6          6.5043    1.4599   -2.0709 H         1 <0>         0.1118
     37 H7          4.9789    1.7950   -2.9310 H         1 <0>         0.0775
     38 H8          4.6754    5.1013   -1.0493 H         1 <0>         0.0911
     39 H9          3.7990    4.1442   -2.2720 H         1 <0>         0.0847
     40 H10         2.6330    3.8314   -0.1808 H         1 <0>         0.1037
     41 H11         4.1567    3.4995    0.6837 H         1 <0>         0.0800
     42 H12         6.1894    5.6158   -0.7181 H         1 <0>         0.4102
     43 H13         7.2962    7.8271   -1.1217 H         1 <0>         0.1494
     44 H14         9.4950    8.9617   -1.3281 H         1 <0>         0.1542
     45 H15         9.3442    4.0768   -1.3753 H         1 <0>         0.2070
     46 H16        13.1996    6.0752   -1.7579 H         1 <0>         0.2280
     47 H17        13.8863   10.2202   -1.7523 H         1 <0>         0.2270
@<TRIPOS>BOND
     1    1    6 ar
     2    1    2 ar
     3    1   31 1
     4    2    3 ar
     5    2   32 1
     6    3    4 ar
     7    3   11 1
     8    4    5 ar
     9    5    6 ar
    10    5   33 1
    11    6    7 1
    12    7    8 1
    13    7    9 1
    14    7   10 1
    15   11   16 1
    16   11   12 1
    17   12   13 1
    18   12   34 1
    19   12   35 1
    20   13   14 1
    21   13   36 1
    22   13   37 1
    23   14   15 1
    24   14   17 am
    25   15   16 1
    26   15   38 1
    27   15   39 1
    28   16   40 1
    29   16   41 1
    30   17   18 2
    31   17   19 am
    32   19   20 1
    33   19   42 1
    34   20   25 ar
    35   20   21 ar
    36   21   22 ar
    37   21   43 1
    38   22   23 ar
    39   22   44 1
    40   23   24 ar
    41   23   26 1
    42   24   25 ar
    43   25   45 1
    44   26   30 1
    45   26   27 1
    46   27   28 2
    47   27   46 1
    48   28   29 1
    49   29   30 2
    50   29   47 1
