@<TRIPOS>MOLECULE
ZINC05149451
   62    65     0     0     0
SMALL
USER_CHARGES
N-[3-(2,6-dimethyl-1-piperidyl)propyl]-2-(ethyl-oxo-BLAHyl)-acetamide
@<TRIPOS>ATOM
      1 C1          2.8122    4.2615    2.3458 C.3       1 <0>        -0.1394
      2 C2          1.8149    3.6866    3.3538 C.3       1 <0>        -0.0656
      3 C3          1.1921    2.4368    2.7873 C.2       1 <0>         0.3390
      4 N1          1.5469    2.0354    1.6153 N.2       1 <0>        -0.2628
      5 N2          1.0128    0.8860    1.0253 N.am      1 <0>        -0.4292
      6 C4          0.0863    0.1557    1.6855 C.2       1 <0>         0.5747
      7 O1         -0.3945   -0.8462    1.1860 O.2       1 <0>        -0.5031
      8 C5         -0.3192    0.6012    3.0211 C.2       1 <0>        -0.0252
      9 N3          0.2565    1.7521    3.5389 N.pl3     1 <0>        -0.3978
     10 C6         -0.2745    1.9736    4.7832 C.2       1 <0>         0.0304
     11 C7         -0.2736    2.8198    5.9184 C.2       1 <0>        -0.2010
     12 C8         -1.1517    2.3066    6.7964 C.2       1 <0>         0.0332
     13 O2         -1.7014    1.1927    6.2813 O.3       1 <0>        -0.1564
     14 C9         -1.1889    0.9597    5.0534 C.2       1 <0>        -0.0235
     15 C10        -1.2099    0.1058    3.9440 C.2       1 <0>        -0.0381
     16 C11         1.4526    0.4764   -0.3107 C.3       1 <0>         0.1221
     17 C12         0.5668    1.1155   -1.3490 C.2       1 <0>         0.5037
     18 O3         -0.3423    1.8416   -1.0067 O.2       1 <0>        -0.5140
     19 N4          0.7849    0.8801   -2.6580 N.am      1 <0>        -0.7345
     20 C13        -0.0762    1.5014   -3.6674 C.3       1 <0>         0.1254
     21 C14         0.3832    1.0736   -5.0627 C.3       1 <0>        -0.1604
     22 C15        -0.5161    1.7224   -6.1169 C.3       1 <0>        -0.0129
     23 C16        -0.6693    2.2252   -8.4800 C.3       1 <0>         0.0270
     24 H1         -1.7248    1.9581   -8.5307 H         1 <0>         0.1396
     25 C17        -0.0141    1.9750   -9.8402 C.3       1 <0>        -0.1405
     26 C18        -0.1331    0.4898  -10.1931 C.3       1 <0>        -0.1403
     27 C19         0.5230   -0.3434   -9.0887 C.3       1 <0>        -0.1413
     28 C20        -0.1478   -0.0260   -7.7502 C.3       1 <0>         0.0277
     29 H2          0.3266   -0.6071   -6.9594 H         1 <0>         0.1349
     30 C21        -1.6329   -0.3861   -7.8263 C.3       1 <0>        -0.1824
     31 C22        -0.5350    3.7046   -8.1139 C.3       1 <0>        -0.1850
     32 H3          3.5912    3.5259    2.1456 H         1 <0>         0.0663
     33 H4          2.2931    4.5025    1.4182 H         1 <0>         0.0646
     34 H5          3.2627    5.1655    2.7556 H         1 <0>         0.0708
     35 H6          1.0359    4.4222    3.5540 H         1 <0>         0.1022
     36 H7          2.3341    3.4456    4.2814 H         1 <0>         0.1031
     37 H8          0.3216    3.7107    6.0534 H         1 <0>         0.1625
     38 H9         -1.3806    2.7241    7.7657 H         1 <0>         0.2219
     39 H10        -1.8153   -0.7817    3.8335 H         1 <0>         0.1716
     40 H11         1.3896   -0.6083   -0.3973 H         1 <0>         0.1306
     41 H12         2.4834    0.7942   -0.4672 H         1 <0>         0.1287
     42 H13         1.5120    0.2994   -2.9318 H         1 <0>         0.4049
     43 H14        -1.1070    1.1836   -3.5109 H         1 <0>         0.0782
     44 H15        -0.0132    2.5861   -3.5808 H         1 <0>         0.0782
     45 H16         1.4140    1.3914   -5.2192 H         1 <0>         0.0940
     46 H17         0.3202   -0.0111   -5.1493 H         1 <0>         0.0949
     47 H18        -1.5312    1.3386   -6.0145 H         1 <0>         0.1365
     48 H19        -0.5203    2.8032   -5.9755 H         1 <0>         0.1369
     49 H20         1.0384    2.2548   -9.7941 H         1 <0>         0.0876
     50 H21        -0.5168    2.5714  -10.6015 H         1 <0>         0.1113
     51 H22         0.3702    0.2991  -11.1410 H         1 <0>         0.0949
     52 H23        -1.1852    0.2179  -10.2783 H         1 <0>         0.0838
     53 H24         1.5839   -0.1001   -9.0308 H         1 <0>         0.0871
     54 H25         0.4045   -1.4036   -9.3127 H         1 <0>         0.1114
     55 H26        -2.1077    0.1952   -8.6167 H         1 <0>         0.0835
     56 H27        -1.7384   -1.4490   -8.0435 H         1 <0>         0.1055
     57 H28        -2.1106   -0.1609   -6.8727 H         1 <0>         0.0795
     58 H29         0.5146    3.9422   -7.9402 H         1 <0>         0.0797
     59 H30        -0.9157    4.3172   -8.9312 H         1 <0>         0.1059
     60 H31        -1.1081    3.9086   -7.2095 H         1 <0>         0.0832
     61 N5          0.0233    1.4130   -7.4572 N.4       1 <0>        -0.3871
     62 H32         1.0246    1.6396   -7.4740 H         1 <0>         0.4235
@<TRIPOS>BOND
     1    1    2 1
     2    1   32 1
     3    1   33 1
     4    1   34 1
     5    2    3 1
     6    2   35 1
     7    2   36 1
     8    3    9 1
     9    3    4 2
    10    4    5 1
    11    5    6 am
    12    5   16 1
    13    6    7 2
    14    6    8 1
    15    8   15 2
    16    8    9 1
    17    9   10 1
    18   10   14 2
    19   10   11 1
    20   11   12 2
    21   11   37 1
    22   12   13 1
    23   12   38 1
    24   13   14 1
    25   14   15 1
    26   15   39 1
    27   16   17 1
    28   16   40 1
    29   16   41 1
    30   17   18 2
    31   17   19 am
    32   19   20 1
    33   19   42 1
    34   20   21 1
    35   20   43 1
    36   20   44 1
    37   21   22 1
    38   21   45 1
    39   21   46 1
    40   22   47 1
    41   22   48 1
    42   22   61 1
    43   23   24 1
    44   23   25 1
    45   23   31 1
    46   23   61 1
    47   25   26 1
    48   25   49 1
    49   25   50 1
    50   26   27 1
    51   26   51 1
    52   26   52 1
    53   27   28 1
    54   27   53 1
    55   27   54 1
    56   28   29 1
    57   28   30 1
    58   28   61 1
    59   30   55 1
    60   30   56 1
    61   30   57 1
    62   31   58 1
    63   31   59 1
    64   31   60 1
    65   61   62 1
