@<TRIPOS>MOLECULE
ZINC38935783
   37    37     0     0     0
SMALL
USER_CHARGES

@<TRIPOS>ATOM
      1 C1          1.4467    0.1717   -0.1130 C.3       1 <0>        -0.1525
      2 C2          0.9079   -1.2469    0.0826 C.3       1 <0>         0.0605
      3 O1         -0.5135   -1.2409   -0.0644 O.3       1 <0>        -0.3484
      4 C3         -1.1459   -2.4163    0.0785 C.2       1 <0>         0.4892
      5 O2         -0.5135   -3.4170    0.3205 O.2       1 <0>        -0.4795
      6 C4         -2.6446   -2.4877   -0.0627 C.3       1 <0>         0.0613
      7 H1         -3.1091   -1.6269    0.4183 H         1 <0>         0.1605
      8 C5         -3.0298   -2.5405   -1.5247 C.2       1 <0>        -0.0749
      9 C6         -3.6804   -3.7103   -1.6899 C.2       1 <0>        -0.1029
     10 C7         -3.7329   -4.4162   -0.3997 C.2       1 <0>         0.2052
     11 N1         -3.1507   -3.7326    0.5272 N.2       1 <0>        -0.4570
     12 C8         -4.3823   -5.7595   -0.1880 C.3       1 <0>        -0.1019
     13 C9         -4.2478   -4.2028   -2.9589 C.2       1 <0>         0.1642
     14 N2         -5.4977   -3.9915   -3.2360 N.2       1 <0>        -0.2391
     15 N3         -6.0367   -4.4593   -4.4416 N.am      1 <0>        -0.5875
     16 C10        -7.3350   -4.2399   -4.7294 C.2       1 <0>         0.7347
     17 O3         -7.8028   -4.6460   -5.7758 O.2       1 <0>        -0.5826
     18 N4         -8.1147   -3.5704   -3.8575 N.am      1 <0>        -0.8487
     19 C11        -3.3759   -4.9514   -3.9339 C.3       1 <0>        -0.1549
     20 C12        -2.7459   -1.5010   -2.5783 C.3       1 <0>        -0.1019
     21 H2          2.5310    0.1671   -0.0008 H         1 <0>         0.0823
     22 H3          1.1861    0.5250   -1.1106 H         1 <0>         0.0679
     23 H4          1.0071    0.8335    0.6332 H         1 <0>         0.0685
     24 H5          1.3475   -1.9086   -0.6636 H         1 <0>         0.0694
     25 H6          1.1685   -1.6002    1.0802 H         1 <0>         0.0707
     26 H7         -3.6486   -6.5481   -0.3550 H         1 <0>         0.0919
     27 H8         -4.7592   -5.8241    0.8327 H         1 <0>         0.0884
     28 H9         -5.2088   -5.8779   -0.8887 H         1 <0>         0.0806
     29 H10        -5.4755   -4.9412   -5.0692 H         1 <0>         0.4041
     30 H11        -7.7415   -3.2465   -3.0228 H         1 <0>         0.4086
     31 H12        -9.0491   -3.4125   -4.0647 H         1 <0>         0.4160
     32 H13        -3.4888   -6.0235   -3.7732 H         1 <0>         0.0928
     33 H14        -3.6740   -4.7032   -4.9525 H         1 <0>         0.0767
     34 H15        -2.3343   -4.6687   -3.7810 H         1 <0>         0.0883
     35 H16        -1.7491   -1.6625   -2.9887 H         1 <0>         0.0851
     36 H17        -3.4846   -1.5808   -3.3758 H         1 <0>         0.0781
     37 H18        -2.7987   -0.5078   -2.1323 H         1 <0>         0.0867
@<TRIPOS>BOND
     1    1    2 1
     2    1   21 1
     3    1   22 1
     4    1   23 1
     5    2    3 1
     6    2   24 1
     7    2   25 1
     8    3    4 1
     9    4    5 2
    10    4    6 1
    11    6    7 1
    12    6   11 1
    13    6    8 1
    14    8    9 2
    15    8   20 1
    16    9   10 1
    17    9   13 1
    18   10   11 2
    19   10   12 1
    20   12   26 1
    21   12   27 1
    22   12   28 1
    23   13   14 2
    24   13   19 1
    25   14   15 1
    26   15   16 am
    27   15   29 1
    28   16   17 2
    29   16   18 am
    30   18   30 1
    31   18   31 1
    32   19   32 1
    33   19   33 1
    34   19   34 1
    35   20   35 1
    36   20   36 1
    37   20   37 1
