@<TRIPOS>MOLECULE
ZINC62539827
   41    42     0     0     0
SMALL
USER_CHARGES

@<TRIPOS>ATOM
      1 C1         -0.1624    1.2128   -1.0915 C.3       1 <0>        -0.1546
      2 C2         -0.0279   -0.2979   -0.8900 C.3       1 <0>        -0.1182
      3 C3         -1.3720   -0.9718   -1.1732 C.3       1 <0>        -0.0829
      4 C4         -1.2395   -2.4598   -0.9747 C.ar      1 <0>        -0.0130
      5 C5         -0.8672   -3.2658   -2.0345 C.ar      1 <0>        -0.1949
      6 C6         -0.7416   -4.6372   -1.8578 C.ar      1 <0>         0.2316
      7 C7         -0.9918   -5.1991   -0.6107 C.ar      1 <0>        -0.0099
      8 C8         -1.3689   -4.3834    0.4515 C.ar      1 <0>         0.1780
      9 C9         -1.4851   -3.0135    0.2679 C.ar      1 <0>        -0.1810
     10 N1         -1.6291   -4.9604    1.7021 N.am      1 <0>        -0.5626
     11 C10        -0.7403   -5.8334    2.2267 C.2       1 <0>         0.5342
     12 O1         -0.9808   -6.3908    3.2768 O.2       1 <0>        -0.5171
     13 C11         0.5504   -6.1111    1.5003 C.3       1 <0>        -0.1164
     14 C12         0.2867   -6.9940    0.2823 C.3       1 <0>         0.0725
     15 O2         -0.8673   -6.5402   -0.4207 O.3       1 <0>        -0.3156
     16 C13         1.1705   -4.7889    1.0439 C.3       1 <0>        -0.1667
     17 C14         1.5204   -6.8247    2.4440 C.3       1 <0>        -0.1283
     18 C15        -2.8519   -4.6203    2.4337 C.3       1 <0>         0.0834
     19 N2         -0.3646   -5.4518   -2.9319 N.pl3     1 <0>        -0.8662
     20 H1          0.7952    1.6929   -0.8897 H         1 <0>         0.0556
     21 H2         -0.4617    1.4170   -2.1195 H         1 <0>         0.0550
     22 H3         -0.9164    1.6048   -0.4089 H         1 <0>         0.0550
     23 H4          0.7261   -0.6898   -1.5726 H         1 <0>         0.0640
     24 H5          0.2714   -0.5020    0.1381 H         1 <0>         0.0638
     25 H6         -2.1260   -0.5799   -0.4906 H         1 <0>         0.0757
     26 H7         -1.6713   -0.7676   -2.2012 H         1 <0>         0.0761
     27 H8         -0.6740   -2.8276   -3.0025 H         1 <0>         0.1298
     28 H9         -1.7714   -2.3801    1.0944 H         1 <0>         0.1290
     29 H10         1.1503   -6.9592   -0.3819 H         1 <0>         0.0689
     30 H11         0.1286   -8.0217    0.6095 H         1 <0>         0.1059
     31 H12         1.0844   -4.0524    1.8428 H         1 <0>         0.0632
     32 H13         2.2225   -4.9444    0.8049 H         1 <0>         0.0692
     33 H14         0.6463   -4.4281    0.1590 H         1 <0>         0.0838
     34 H15         1.0795   -7.7648    2.7754 H         1 <0>         0.0697
     35 H16         2.4548   -7.0264    1.9201 H         1 <0>         0.0679
     36 H17         1.7182   -6.1913    3.3087 H         1 <0>         0.0663
     37 H18        -3.6466   -5.3123    2.1547 H         1 <0>         0.0631
     38 H19        -2.6664   -4.6931    3.5053 H         1 <0>         0.0820
     39 H20        -3.1527   -3.6025    2.1854 H         1 <0>         0.0776
     40 H21        -0.1907   -5.0584   -3.8013 H         1 <0>         0.4019
     41 H22        -0.2773   -6.4098   -2.8068 H         1 <0>         0.4041
@<TRIPOS>BOND
     1    1    2 1
     2    1   20 1
     3    1   21 1
     4    1   22 1
     5    2    3 1
     6    2   23 1
     7    2   24 1
     8    3    4 1
     9    3   25 1
    10    3   26 1
    11    4    9 ar
    12    4    5 ar
    13    5    6 ar
    14    5   27 1
    15    6    7 ar
    16    6   19 1
    17    7   15 1
    18    7    8 ar
    19    8    9 ar
    20    8   10 1
    21    9   28 1
    22   10   11 am
    23   10   18 1
    24   11   12 2
    25   11   13 1
    26   13   14 1
    27   13   16 1
    28   13   17 1
    29   14   15 1
    30   14   29 1
    31   14   30 1
    32   16   31 1
    33   16   32 1
    34   16   33 1
    35   17   34 1
    36   17   35 1
    37   17   36 1
    38   18   37 1
    39   18   38 1
    40   18   39 1
    41   19   40 1
    42   19   41 1
