@<TRIPOS>MOLECULE
ZINC38745224
   46    50     0     0     0
SMALL
USER_CHARGES

@<TRIPOS>ATOM
      1 C1         -0.0184    1.5028    0.0103 C.3       1 <0>        -0.1125
      2 C2          0.0021   -0.0041    0.0020 C.ar      1 <0>        -0.1201
      3 C3          0.0057   -0.6876   -1.1998 C.ar      1 <0>        -0.0802
      4 C4          0.0240   -2.0689   -1.2101 C.ar      1 <0>        -0.1431
      5 C5          0.0391   -2.7702   -0.0132 C.ar      1 <0>         0.1234
      6 C6          0.0359   -2.0820    1.1914 C.ar      1 <0>        -0.2023
      7 C7          0.0229   -0.7006    1.1962 C.ar      1 <0>        -0.0792
      8 O1          0.0567   -4.1291   -0.0207 O.3       1 <0>        -0.3119
      9 C8          0.0716   -4.7847    1.2490 C.3       1 <0>         0.1504
     10 C9          0.0899   -6.2775    1.0433 C.2       1 <0>         0.2367
     11 N1         -0.9525   -7.0473    0.9388 N.2       1 <0>        -0.2389
     12 N2         -0.5844   -8.2702    0.7818 N.2       1 <0>        -0.2240
     13 C10         0.7104   -8.3359    0.7963 C.2       1 <0>         0.1717
     14 N3          1.2188   -7.0686    0.9266 N.pl3     1 <0>        -0.3404
     15 N4          2.5696   -6.8874    0.8959 N.3       1 <0>        -0.4490
     16 C11         3.3729   -8.0966    1.2196 C.3       1 <0>         0.1526
     17 H1          4.2820   -8.1465    0.6203 H         1 <0>         0.1739
     18 S1          2.1493   -9.3814    0.7172 S.3       1 <0>        -0.0151
     19 C12         3.6855   -8.1812    2.7149 C.3       1 <0>        -0.0302
     20 H2          4.1636   -7.2641    3.0593 H         1 <0>         0.1732
     21 C13         4.5602   -9.3861    3.0124 C.2       1 <0>        -0.1564
     22 C14         3.8066  -10.1354    3.8401 C.2       1 <0>         0.0319
     23 N5          2.6099   -9.5331    4.0675 N.2       1 <0>        -0.1368
     24 N6          2.4617   -8.4512    3.4875 N.2       1 <0>        -0.1395
     25 C15         4.2239  -11.4354    4.4208 C.ar      1 <0>        -0.0393
     26 C16         5.4795  -11.9626    4.1251 C.ar      1 <0>        -0.0988
     27 C17         5.8627  -13.1720    4.6684 C.ar      1 <0>        -0.1210
     28 C18         5.0030  -13.8607    5.5051 C.ar      1 <0>        -0.1044
     29 C19         3.7555  -13.3421    5.8021 C.ar      1 <0>        -0.1202
     30 C20         3.3640  -12.1309    5.2686 C.ar      1 <0>        -0.0830
     31 H3          1.0042    1.8801    0.0026 H         1 <0>         0.0691
     32 H4         -0.5455    1.8639   -0.8728 H         1 <0>         0.0665
     33 H5         -0.5286    1.8543    0.9071 H         1 <0>         0.0660
     34 H6         -0.0061   -0.1412   -2.1314 H         1 <0>         0.1306
     35 H7          0.0261   -2.6024   -2.1492 H         1 <0>         0.1309
     36 H8          0.0477   -2.6256    2.1245 H         1 <0>         0.1292
     37 H9          0.0248   -0.1643    2.1337 H         1 <0>         0.1267
     38 H10         0.9606   -4.4833    1.8030 H         1 <0>         0.0927
     39 H11        -0.8192   -4.5064    1.8121 H         1 <0>         0.1067
     40 H12         2.8606   -6.4844    0.0179 H         1 <0>         0.3883
     41 H13         5.5545   -9.5940    2.6457 H         1 <0>         0.1820
     42 H14         6.1514  -11.4259    3.4716 H         1 <0>         0.1240
     43 H15         6.8355  -13.5817    4.4396 H         1 <0>         0.1286
     44 H16         5.3068  -14.8069    5.9279 H         1 <0>         0.1269
     45 H17         3.0881  -13.8841    6.4557 H         1 <0>         0.1295
     46 H18         2.3915  -11.7248    5.5046 H         1 <0>         0.1349
@<TRIPOS>BOND
     1    1    2 1
     2    1   31 1
     3    1   32 1
     4    1   33 1
     5    2    7 ar
     6    2    3 ar
     7    3    4 ar
     8    3   34 1
     9    4    5 ar
    10    4   35 1
    11    5    6 ar
    12    5    8 1
    13    6    7 ar
    14    6   36 1
    15    7   37 1
    16    8    9 1
    17    9   10 1
    18    9   38 1
    19    9   39 1
    20   10   14 1
    21   10   11 2
    22   11   12 1
    23   12   13 2
    24   13   18 1
    25   13   14 1
    26   14   15 1
    27   15   16 1
    28   15   40 1
    29   16   17 1
    30   16   18 1
    31   16   19 1
    32   19   20 1
    33   19   24 1
    34   19   21 1
    35   21   22 2
    36   21   41 1
    37   22   23 1
    38   22   25 1
    39   23   24 2
    40   25   30 ar
    41   25   26 ar
    42   26   27 ar
    43   26   42 1
    44   27   28 ar
    45   27   43 1
    46   28   29 ar
    47   28   44 1
    48   29   30 ar
    49   29   45 1
    50   30   46 1
