@<TRIPOS>MOLECULE
ZINC63533218
   42    44     0     0     0
SMALL
USER_CHARGES

@<TRIPOS>ATOM
      1 C1         -0.0166    1.3724    0.0096 C.ar      1 <0>        -0.0863
      2 C2          1.1598    2.1008    0.0023 C.ar      1 <0>        -0.0918
      3 C3          2.3764    1.4335   -0.0130 C.ar      1 <0>         0.0051
      4 C4          2.3974    0.0693   -0.0205 C.ar      1 <0>        -0.6161
      5 C5          1.2231   -0.6959   -0.0134 C.ar      1 <0>        -0.1211
      6 C6          0.0021   -0.0041    0.0020 C.ar      1 <0>        -0.0536
      7 C7          1.5020   -2.1402   -0.0238 C.2       1 <0>         0.5105
      8 N1          2.7313   -2.5471   -0.0378 N.2       1 <0>        -0.8774
      9 S1          3.6713   -1.1624   -0.0393 S.o2      1 <0>         2.5813
     10 O1          4.3523   -1.1000    1.2063 O.2       1 <0>        -0.9412
     11 O2          4.3284   -1.0865   -1.2969 O.2       1 <0>        -0.9412
     12 N2          0.4670   -3.0497   -0.0184 N.pl3     1 <0>        -0.6709
     13 C8          0.7542   -4.4862   -0.0289 C.3       1 <0>         0.1309
     14 C9         -0.5603   -5.2692   -0.0200 C.3       1 <0>        -0.1568
     15 C10        -0.2649   -6.7469   -0.0308 C.2       1 <0>         0.5238
     16 O3          0.8839   -7.1356   -0.0443 O.2       1 <0>        -0.5282
     17 N3         -1.2772   -7.6366   -0.0254 N.am      1 <0>        -0.7190
     18 C11        -0.9901   -9.0731   -0.0359 C.3       1 <0>         0.1037
     19 C12        -2.2848   -9.8443   -0.0272 C.2       1 <0>         0.5123
     20 O4         -3.3434   -9.2521   -0.0135 O.2       1 <0>        -0.5254
     21 N4         -2.2665  -11.1919   -0.0345 N.am      1 <0>        -0.6362
     22 C13        -3.4758  -11.9122   -0.0263 C.2       1 <0>        -0.0074
     23 C14        -3.6012  -13.2640   -0.0268 C.2       1 <0>         0.0302
     24 N5         -4.9283  -13.5524   -0.0173 N.pl3     1 <0>        -0.4718
     25 H1         -5.3196  -14.4400   -0.0154 H         1 <0>         0.4465
     26 N6         -5.6319  -12.3413   -0.0109 N.2       1 <0>        -0.2806
     27 C15        -4.7654  -11.3611   -0.0101 C.2       1 <0>         0.0556
     28 H2         -0.9635    1.8915    0.0260 H         1 <0>         0.1447
     29 H3          1.1314    3.1804    0.0080 H         1 <0>         0.1474
     30 H4          3.3015    1.9909   -0.0192 H         1 <0>         0.1454
     31 H5         -0.9273   -0.5542    0.0083 H         1 <0>         0.1392
     32 H6         -0.4518   -2.7388   -0.0076 H         1 <0>         0.4139
     33 H7          1.3204   -4.7370   -0.9259 H         1 <0>         0.0944
     34 H8          1.3381   -4.7465    0.8540 H         1 <0>         0.0945
     35 H9         -1.1265   -5.0184    0.8770 H         1 <0>         0.1073
     36 H10        -1.1442   -5.0089   -0.9028 H         1 <0>         0.1073
     37 H11        -2.1960   -7.3257   -0.0147 H         1 <0>         0.4144
     38 H12        -0.4238   -9.3239   -0.9329 H         1 <0>         0.1058
     39 H13        -0.4062   -9.3333    0.8469 H         1 <0>         0.1058
     40 H14        -1.4200  -11.6654   -0.0454 H         1 <0>         0.4155
     41 H15        -2.7926  -13.9799   -0.0341 H         1 <0>         0.1827
     42 H16        -5.0027  -10.3075   -0.0017 H         1 <0>         0.2065
@<TRIPOS>BOND
     1    1    6 ar
     2    1    2 ar
     3    1   28 1
     4    2    3 ar
     5    2   29 1
     6    3    4 ar
     7    3   30 1
     8    4    9 1
     9    4    5 ar
    10    5    6 ar
    11    5    7 1
    12    6   31 1
    13    7    8 2
    14    7   12 1
    15    8    9 1
    16    9   10 2
    17    9   11 2
    18   12   13 1
    19   12   32 1
    20   13   14 1
    21   13   33 1
    22   13   34 1
    23   14   15 1
    24   14   35 1
    25   14   36 1
    26   15   16 2
    27   15   17 am
    28   17   18 1
    29   17   37 1
    30   18   19 1
    31   18   38 1
    32   18   39 1
    33   19   20 2
    34   19   21 am
    35   21   22 1
    36   21   40 1
    37   22   27 1
    38   22   23 2
    39   23   24 1
    40   23   41 1
    41   24   25 1
    42   24   26 1
    43   26   27 2
    44   27   42 1
