@<TRIPOS>MOLECULE
ZINC38942898
   68    71     0     0     0
SMALL
USER_CHARGES

@<TRIPOS>ATOM
      1 C1         -0.6721    1.6194   -0.6061 C.3       1 <0>        -0.1460
      2 C2         -0.5318    0.0986   -0.5140 C.3       1 <0>        -0.1140
      3 C3          0.2368   -0.2666    0.7575 C.3       1 <0>        -0.1419
      4 C4         -1.9214   -0.5401   -0.4712 C.3       1 <0>         0.1167
      5 N1         -1.7896   -1.9988   -0.5035 N.am      1 <0>        -0.5571
      6 C5         -1.7677   -2.6806   -1.7278 C.ar      1 <0>         0.1471
      7 C6         -0.9394   -2.2588   -2.7543 C.ar      1 <0>        -0.1500
      8 C7         -0.9341   -2.9434   -3.9621 C.ar      1 <0>         0.1573
      9 C8         -1.7579   -4.0474   -4.1387 C.ar      1 <0>        -0.1115
     10 C9         -2.5832   -4.4696   -3.1135 C.ar      1 <0>        -0.0955
     11 C10        -2.5902   -3.7918   -1.9061 C.ar      1 <0>         0.0720
     12 O1         -3.3902   -4.2083   -0.8881 O.3       1 <0>        -0.3209
     13 C11        -2.7644   -4.8954    0.1926 C.3       1 <0>         0.0776
     14 C12        -1.4706   -4.1910    0.5951 C.3       1 <0>        -0.1206
     15 C13        -1.6823   -2.7003    0.6470 C.2       1 <0>         0.5372
     16 O2         -1.7601   -2.1329    1.7162 O.2       1 <0>        -0.5084
     17 C14        -0.3796   -4.5095   -0.4292 C.3       1 <0>        -0.1661
     18 C15        -1.0298   -4.6881    1.9733 C.3       1 <0>        -0.1279
     19 N2         -0.0977   -2.5201   -5.0033 N.am      1 <0>        -0.6688
     20 C16         0.4766   -3.4276   -5.8176 C.2       1 <0>         0.5217
     21 O3          0.2020   -4.6036   -5.7046 O.2       1 <0>        -0.5020
     22 C17         1.4602   -2.9811   -6.8685 C.3       1 <0>        -0.1246
     23 H1          0.9976   -2.2747   -7.5578 H         1 <0>         0.1386
     24 C18         2.7254   -2.3735   -6.2198 C.3       1 <0>        -0.1442
     25 C19         3.6863   -3.5377   -6.1193 C.2       1 <0>         0.5143
     26 O4          4.6795   -3.5606   -5.4234 O.2       1 <0>        -0.5047
     27 N3          3.2790   -4.5432   -6.9130 N.am      1 <0>        -0.5508
     28 C20         2.0453   -4.1923   -7.6283 C.3       1 <0>         0.1091
     29 C21         3.9458   -5.7687   -7.0415 C.ar      1 <0>         0.1280
     30 C22         5.1655   -5.9655   -6.4080 C.ar      1 <0>        -0.1143
     31 C23         5.8219   -7.1738   -6.5347 C.ar      1 <0>        -0.1230
     32 C24         5.2631   -8.1907   -7.2949 C.ar      1 <0>         0.1061
     33 C25         4.0447   -7.9946   -7.9284 C.ar      1 <0>        -0.1809
     34 C26         3.3843   -6.7890   -7.7976 C.ar      1 <0>        -0.1114
     35 O5          5.9102   -9.3801   -7.4196 O.3       1 <0>        -0.3173
     36 C27         5.2772  -10.3825   -8.2174 C.3       1 <0>         0.0266
     37 H2          0.3179    2.0744   -0.6366 H         1 <0>         0.0607
     38 H3         -1.2197    1.8796   -1.5119 H         1 <0>         0.0568
     39 H4         -1.2145    1.9876    0.2648 H         1 <0>         0.0595
     40 H5          0.0106   -0.2696   -1.3849 H         1 <0>         0.0709
     41 H6          0.3368   -1.3501    0.8230 H         1 <0>         0.0485
     42 H7          1.2268    0.1884    0.7269 H         1 <0>         0.0528
     43 H8         -0.3056    0.1015    1.6283 H         1 <0>         0.0622
     44 H9         -2.4304   -0.2415    0.4453 H         1 <0>         0.0938
     45 H10        -2.5005   -0.2084   -1.3330 H         1 <0>         0.0825
     46 H11        -0.2998   -1.3997   -2.6158 H         1 <0>         0.1397
     47 H12        -1.7540   -4.5772   -5.0798 H         1 <0>         0.1486
     48 H13        -3.2230   -5.3282   -3.2544 H         1 <0>         0.1424
     49 H14        -3.4425   -4.9187    1.0457 H         1 <0>         0.1095
     50 H15        -2.5386   -5.9172   -0.1125 H         1 <0>         0.0748
     51 H16        -0.7999   -4.4634   -1.4339 H         1 <0>         0.0791
     52 H17         0.4270   -3.7820   -0.3391 H         1 <0>         0.0633
     53 H18         0.0113   -5.5101   -0.2444 H         1 <0>         0.0722
     54 H19        -0.8618   -5.7644    1.9347 H         1 <0>         0.0690
     55 H20        -0.1063   -4.1863    2.2622 H         1 <0>         0.0667
     56 H21        -1.8073   -4.4677    2.7048 H         1 <0>         0.0707
     57 H22         0.0679   -1.5739   -5.1381 H         1 <0>         0.4149
     58 H23         3.1405   -1.5900   -6.8538 H         1 <0>         0.1271
     59 H24         2.4956   -1.9820   -5.2289 H         1 <0>         0.1111
     60 H25         1.3444   -5.0268   -7.6046 H         1 <0>         0.1069
     61 H26         2.2714   -3.9178   -8.6586 H         1 <0>         0.0953
     62 H27         5.6010   -5.1736   -5.8167 H         1 <0>         0.1608
     63 H28         6.7707   -7.3270   -6.0420 H         1 <0>         0.1361
     64 H29         3.6105   -8.7865   -8.5208 H         1 <0>         0.1332
     65 H30         2.4334   -6.6381   -8.2868 H         1 <0>         0.1293
     66 H31         4.3023  -10.6226   -7.7930 H         1 <0>         0.0553
     67 H32         5.1493  -10.0107   -9.2340 H         1 <0>         0.0553
     68 H33         5.8970  -11.2790   -8.2336 H         1 <0>         0.1006
@<TRIPOS>BOND
     1    1    2 1
     2    1   37 1
     3    1   38 1
     4    1   39 1
     5    2    3 1
     6    2    4 1
     7    2   40 1
     8    3   41 1
     9    3   42 1
    10    3   43 1
    11    4    5 1
    12    4   44 1
    13    4   45 1
    14    5   15 am
    15    5    6 1
    16    6   11 ar
    17    6    7 ar
    18    7    8 ar
    19    7   46 1
    20    8    9 ar
    21    8   19 1
    22    9   10 ar
    23    9   47 1
    24   10   11 ar
    25   10   48 1
    26   11   12 1
    27   12   13 1
    28   13   14 1
    29   13   49 1
    30   13   50 1
    31   14   15 1
    32   14   17 1
    33   14   18 1
    34   15   16 2
    35   17   51 1
    36   17   52 1
    37   17   53 1
    38   18   54 1
    39   18   55 1
    40   18   56 1
    41   19   20 am
    42   19   57 1
    43   20   21 2
    44   20   22 1
    45   22   23 1
    46   22   28 1
    47   22   24 1
    48   24   25 1
    49   24   58 1
    50   24   59 1
    51   25   26 2
    52   25   27 am
    53   27   28 1
    54   27   29 1
    55   28   60 1
    56   28   61 1
    57   29   34 ar
    58   29   30 ar
    59   30   31 ar
    60   30   62 1
    61   31   32 ar
    62   31   63 1
    63   32   33 ar
    64   32   35 1
    65   33   34 ar
    66   33   64 1
    67   34   65 1
    68   35   36 1
    69   36   66 1
    70   36   67 1
    71   36   68 1
