@<TRIPOS>MOLECULE
ZINC09581512
   64    68     0     0     0
SMALL
USER_CHARGES
methyl 2-[4-[2-(dioxoBLAHyl)acetyl]piperazin-1-yl]-2-(4-fluorophenyl)-acetate
@<TRIPOS>ATOM
      1 C1         -1.0141   11.8589   -2.0747 C.3       1 <0>         0.0318
      2 O1         -2.3824   11.4023   -2.2409 O.3       1 <0>        -0.3269
      3 C2         -2.6066   10.0861   -2.1028 C.2       1 <0>         0.4657
      4 O2         -1.6898    9.3402   -1.8514 O.2       1 <0>        -0.4848
      5 C3         -4.0016    9.5386   -2.2613 C.3       1 <0>         0.0940
      6 H1         -4.3691    9.7648   -3.2623 H         1 <0>         0.1829
      7 C4         -4.9090   10.1718   -1.2381 C.ar      1 <0>        -0.1723
      8 C5         -4.3825   10.6634   -0.0582 C.ar      1 <0>        -0.0587
      9 C6         -5.2129   11.2486    0.8788 C.ar      1 <0>        -0.1440
     10 C7         -6.5741   11.3329    0.6399 C.ar      1 <0>         0.1502
     11 C8         -7.1010   10.8354   -0.5399 C.ar      1 <0>        -0.1454
     12 C9         -6.2679   10.2554   -1.4777 C.ar      1 <0>        -0.0519
     13 F1         -7.3875   11.9005    1.5572 F         1 <0>        -0.1177
     14 C10        -3.1669    7.4235   -3.0932 C.3       1 <0>        -0.0314
     15 C11        -3.3176    5.9041   -2.9632 C.3       1 <0>         0.0942
     16 N1         -3.0016    5.5201   -1.5790 N.am      1 <0>        -0.6292
     17 C12        -3.6840    6.2304   -0.4868 C.3       1 <0>         0.0886
     18 C13        -3.5145    7.7409   -0.7142 C.3       1 <0>        -0.0406
     19 C14        -2.1145    4.5394   -1.3186 C.2       1 <0>         0.5139
     20 O3         -1.5648    3.9608   -2.2317 O.2       1 <0>        -0.4949
     21 C15        -1.8056    4.1620    0.1073 C.3       1 <0>         0.0995
     22 N2         -0.8191    3.0790    0.1230 N.am      1 <0>        -0.5680
     23 C16         0.5179    3.2698    0.1515 C.2       1 <0>         0.5479
     24 O4          1.1102    4.3275    0.1692 O.2       1 <0>        -0.4482
     25 C17         1.1153    1.8868    0.1569 C.3       1 <0>         0.1702
     26 C18         2.0249    1.6703   -1.0592 C.3       1 <0>        -0.1102
     27 C19         3.4228    1.9867   -0.4809 C.3       1 <0>        -0.0853
     28 C20         3.3096    1.7141    1.0047 C.ar      1 <0>        -0.0666
     29 C21         1.9748    1.6584    1.3708 C.ar      1 <0>        -0.1223
     30 C22         1.6355    1.4200    2.6921 C.ar      1 <0>        -0.0812
     31 C23         2.6203    1.2377    3.6430 C.ar      1 <0>        -0.1205
     32 C24         3.9518    1.2930    3.2767 C.ar      1 <0>        -0.0946
     33 C25         4.2942    1.5310    1.9598 C.ar      1 <0>        -0.1069
     34 N3         -0.0376    0.9867    0.1292 N.am      1 <0>        -0.7074
     35 C26        -1.1305    1.7763    0.1051 C.2       1 <0>         0.7090
     36 O5         -2.2696    1.3537    0.0739 O.2       1 <0>        -0.5343
     37 H2         -0.3769   11.3741   -2.8144 H         1 <0>         0.0775
     38 H3         -0.9725   12.9395   -2.2117 H         1 <0>         0.1209
     39 H4         -0.6657   11.6060   -1.0734 H         1 <0>         0.0762
     40 H5         -3.3212   10.5939    0.1297 H         1 <0>         0.1347
     41 H6         -4.8008   11.6363    1.7987 H         1 <0>         0.1538
     42 H7         -8.1627   10.9003   -0.7271 H         1 <0>         0.1555
     43 H8         -6.6787    9.8670   -2.3979 H         1 <0>         0.1484
     44 H9         -2.1205    7.6980   -2.9598 H         1 <0>         0.1537
     45 H10        -3.5026    7.7391   -4.0811 H         1 <0>         0.1439
     46 H11        -2.6289    5.4080   -3.6471 H         1 <0>         0.1384
     47 H12        -4.3412    5.6132   -3.1993 H         1 <0>         0.0997
     48 H13        -4.7432    5.9734   -0.4883 H         1 <0>         0.1053
     49 H14        -3.2377    5.9501    0.4674 H         1 <0>         0.1297
     50 H15        -2.4633    8.0110   -0.6138 H         1 <0>         0.1574
     51 H16        -4.1024    8.2871    0.0235 H         1 <0>         0.1418
     52 H17        -2.7186    3.8291    0.6010 H         1 <0>         0.1347
     53 H18        -1.4031    5.0277    0.6333 H         1 <0>         0.1293
     54 H19         1.9723    0.6378   -1.4045 H         1 <0>         0.1008
     55 H20         1.7688    2.3602   -1.8633 H         1 <0>         0.0911
     56 H21         4.1734    1.3355   -0.9286 H         1 <0>         0.0921
     57 H22         3.6761    3.0325   -0.6551 H         1 <0>         0.0939
     58 H23         0.5956    1.3760    2.9803 H         1 <0>         0.1190
     59 H24         2.3502    1.0518    4.6720 H         1 <0>         0.1314
     60 H25         4.7234    1.1507    4.0189 H         1 <0>         0.1325
     61 H26         5.3349    1.5748    1.6744 H         1 <0>         0.1294
     62 H27        -0.0194    0.0168    0.1247 H         1 <0>         0.4467
     63 N4         -4.0107    8.0739   -2.0672 N.4       1 <0>        -0.3782
     64 H28        -4.9738    7.7310   -2.1622 H         1 <0>         0.4359
@<TRIPOS>BOND
     1    1    2 1
     2    1   37 1
     3    1   38 1
     4    1   39 1
     5    2    3 1
     6    3    4 2
     7    3    5 1
     8    5    6 1
     9    5    7 1
    10    5   63 1
    11    7   12 ar
    12    7    8 ar
    13    8    9 ar
    14    8   40 1
    15    9   10 ar
    16    9   41 1
    17   10   11 ar
    18   10   13 1
    19   11   12 ar
    20   11   42 1
    21   12   43 1
    22   14   15 1
    23   14   44 1
    24   14   45 1
    25   14   63 1
    26   15   16 1
    27   15   46 1
    28   15   47 1
    29   16   17 1
    30   16   19 am
    31   17   18 1
    32   17   48 1
    33   17   49 1
    34   18   50 1
    35   18   51 1
    36   18   63 1
    37   19   20 2
    38   19   21 1
    39   21   22 1
    40   21   52 1
    41   21   53 1
    42   22   35 am
    43   22   23 am
    44   23   24 2
    45   23   25 1
    46   25   29 1
    47   25   26 1
    48   25   34 1
    49   26   27 1
    50   26   54 1
    51   26   55 1
    52   27   28 1
    53   27   56 1
    54   27   57 1
    55   28   33 ar
    56   28   29 ar
    57   29   30 ar
    58   30   31 ar
    59   30   58 1
    60   31   32 ar
    61   31   59 1
    62   32   33 ar
    63   32   60 1
    64   33   61 1
    65   34   35 am
    66   34   62 1
    67   35   36 2
    68   63   64 1
