@<TRIPOS>MOLECULE
ZINC13575255
   61    65     0     0     0
SMALL
USER_CHARGES

@<TRIPOS>ATOM
      1 C1         -0.3443    0.2658   -0.4666 C.3       1 <0>        -0.1116
      2 C2         -0.3418   -1.1908   -0.0798 C.ar      1 <0>        -0.0966
      3 C3         -0.5812   -2.1619   -1.0350 C.ar      1 <0>        -0.0772
      4 C4         -0.5805   -3.4964   -0.6864 C.ar      1 <0>        -0.0926
      5 C5         -0.3371   -3.8765    0.6314 C.ar      1 <0>         0.1554
      6 C6         -0.0961   -2.8907    1.5840 C.ar      1 <0>        -0.1202
      7 C7         -0.0943   -1.5598    1.2304 C.ar      1 <0>        -0.0632
      8 C8          0.1289   -3.6176    2.8792 C.3       1 <0>         0.1271
      9 C9         -0.8815   -3.1916    3.9502 C.3       1 <0>        -0.1413
     10 H1         -1.2556   -4.0352    4.5303 H         1 <0>         0.1433
     11 C10        -0.1179   -2.1551    4.8210 C.3       1 <0>        -0.1536
     12 H2         -0.0773   -2.4337    5.8740 H         1 <0>         0.1445
     13 C11         1.2817   -2.0538    4.1775 C.3       1 <0>         0.0950
     14 H3          1.3177   -1.2195    3.4770 H         1 <0>         0.1037
     15 N1          1.4614   -3.3245    3.4392 N.3       1 <0>        -0.6101
     16 C12         2.3532   -1.8879    5.2570 C.3       1 <0>        -0.0789
     17 C13         3.6938   -1.6683    4.6046 C.ar      1 <0>        -0.0700
     18 C14         4.4952   -2.7511    4.2937 C.ar      1 <0>        -0.0911
     19 C15         5.7258   -2.5548    3.6951 C.ar      1 <0>        -0.1280
     20 C16         6.1583   -1.2708    3.4051 C.ar      1 <0>         0.0789
     21 C17         5.3514   -0.1809    3.7176 C.ar      1 <0>         0.0815
     22 C18         4.1170   -0.3849    4.3131 C.ar      1 <0>        -0.1241
     23 O1          5.7715    1.0812    3.4349 O.3       1 <0>        -0.4882
     24 O2          7.3688   -1.0760    2.8167 O.3       1 <0>        -0.4893
     25 C19        -0.8823   -0.8720    4.5852 C.2       1 <0>         0.5413
     26 O3         -0.6203    0.2012    5.0844 O.2       1 <0>        -0.4553
     27 N2         -1.8925   -1.1051    3.7394 N.am      1 <0>        -0.5678
     28 C20        -1.9924   -2.3857    3.3165 C.2       1 <0>         0.5467
     29 O4         -2.8277   -2.8227    2.5543 O.2       1 <0>        -0.4578
     30 C21        -2.8232   -0.0587    3.3094 C.3       1 <0>         0.1020
     31 C22        -4.0697   -0.0889    4.1960 C.3       1 <0>         0.0423
     32 O5         -3.7113    0.2629    5.5339 O.3       1 <0>        -0.3835
     33 C23        -4.8085    0.2603    6.4494 C.3       1 <0>         0.0314
     34 C24        -0.0139   -5.0763    2.5391 C.2       1 <0>         0.5478
     35 O6          0.0930   -6.0119    3.3034 O.2       1 <0>        -0.4846
     36 N3         -0.2843   -5.1413    1.2212 N.am      1 <0>        -0.6492
     37 C25        -0.8443   -4.5467   -1.7345 C.3       1 <0>        -0.1158
     38 H4          0.6739    0.5840   -0.6904 H         1 <0>         0.0728
     39 H5         -0.9709    0.4068   -1.3472 H         1 <0>         0.0699
     40 H6         -0.7377    0.8600    0.3582 H         1 <0>         0.0657
     41 H7         -0.7699   -1.8739   -2.0587 H         1 <0>         0.1339
     42 H8          0.0968   -0.8034    1.9772 H         1 <0>         0.1178
     43 H9          1.7590   -4.0566    4.0665 H         1 <0>         0.3544
     44 H10         2.1087   -1.0295    5.8828 H         1 <0>         0.0972
     45 H11         2.3915   -2.7869    5.8722 H         1 <0>         0.0864
     46 H12         4.1593   -3.7524    4.5192 H         1 <0>         0.1284
     47 H13         6.3502   -3.4024    3.4539 H         1 <0>         0.1324
     48 H14         3.4872    0.4590    4.5533 H         1 <0>         0.1329
     49 H15         5.5140    1.3941    2.5569 H         1 <0>         0.3867
     50 H16         7.3402   -1.0720    1.8501 H         1 <0>         0.3870
     51 H17        -2.3402    0.9147    3.3947 H         1 <0>         0.1073
     52 H18        -3.1107   -0.2319    2.2723 H         1 <0>         0.1085
     53 H19        -4.8026    0.6234    3.8170 H         1 <0>         0.0702
     54 H20        -4.4983   -1.0910    4.1863 H         1 <0>         0.0555
     55 H21        -4.4543    0.5395    7.4417 H         1 <0>         0.0885
     56 H22        -5.5605    0.9761    6.1173 H         1 <0>         0.0439
     57 H23        -5.2476   -0.7366    6.4874 H         1 <0>         0.0402
     58 H24        -0.4259   -5.9703    0.7379 H         1 <0>         0.4182
     59 H25         0.0985   -4.8519   -2.1884 H         1 <0>         0.0743
     60 H26        -1.3211   -5.4105   -1.2713 H         1 <0>         0.0624
     61 H27        -1.5012   -4.1372   -2.5019 H         1 <0>         0.0747
@<TRIPOS>BOND
     1    1    2 1
     2    1   38 1
     3    1   39 1
     4    1   40 1
     5    2    7 ar
     6    2    3 ar
     7    3    4 ar
     8    3   41 1
     9    4    5 ar
    10    4   37 1
    11    5   36 1
    12    5    6 ar
    13    6    7 ar
    14    6    8 1
    15    7   42 1
    16    8   15 1
    17    8    9 1
    18    8   34 1
    19    9   10 1
    20    9   28 1
    21    9   11 1
    22   11   12 1
    23   11   13 1
    24   11   25 1
    25   13   14 1
    26   13   15 1
    27   13   16 1
    28   15   43 1
    29   16   17 1
    30   16   44 1
    31   16   45 1
    32   17   22 ar
    33   17   18 ar
    34   18   19 ar
    35   18   46 1
    36   19   20 ar
    37   19   47 1
    38   20   21 ar
    39   20   24 1
    40   21   22 ar
    41   21   23 1
    42   22   48 1
    43   23   49 1
    44   24   50 1
    45   25   26 2
    46   25   27 am
    47   27   28 am
    48   27   30 1
    49   28   29 2
    50   30   31 1
    51   30   51 1
    52   30   52 1
    53   31   32 1
    54   31   53 1
    55   31   54 1
    56   32   33 1
    57   33   55 1
    58   33   56 1
    59   33   57 1
    60   34   35 2
    61   34   36 am
    62   36   58 1
    63   37   59 1
    64   37   60 1
    65   37   61 1
