@<TRIPOS>MOLECULE
ZINC35414688
   37    37     0     0     0
SMALL
USER_CHARGES

@<TRIPOS>ATOM
      1 C1          0.2164    2.1056    0.7285 C.3       1 <0>        -0.1899
      2 C2          0.2241    0.6002    0.4553 C.3       1 <0>        -0.0090
      3 N1          0.8640   -0.0979    1.5783 N.4       1 <0>        -0.5105
      4 C3          0.8714   -1.5433    1.3161 C.3       1 <0>         0.0563
      5 C4          1.5278   -2.2595    2.4681 C.ar      1 <0>        -0.1933
      6 C5          2.8457   -2.6630    2.3708 C.ar      1 <0>         0.0151
      7 C6          3.4485   -3.3200    3.4272 C.ar      1 <0>        -0.0809
      8 C7          2.7345   -3.5752    4.5837 C.ar      1 <0>         0.0196
      9 C8          1.4168   -3.1739    4.6860 C.ar      1 <0>        -0.2055
     10 C9          0.8112   -2.5092    3.6292 C.ar      1 <0>         0.2017
     11 O1         -0.4836   -2.1088    3.7293 O.3       1 <0>        -0.2842
     12 C10        -1.1248   -2.2965    4.9925 C.3       1 <0>         0.0597
     13 H1         -0.4015   -2.1434    5.7935 H         1 <0>         0.1134
     14 C11        -1.6835   -3.7184    5.0746 C.3       1 <0>        -0.1849
     15 C12        -2.2509   -1.3053    5.1364 C.2       1 <0>         0.5276
     16 O2         -2.5400   -0.5774    4.2104 O.2       1 <0>        -0.5274
     17 N2         -2.9366   -1.2278    6.2941 N.am      1 <0>        -0.8380
     18 N3          4.8601   -3.7515    3.3201 N.pl3     1 <0>         0.0292
     19 O3          5.4851   -3.5294    2.3094 O.2       1 <0>        -0.1458
     20 O4          5.3883   -4.3262    4.2434 O.3       1 <0>        -0.1382
     21 H2          1.2412    2.4599    0.8401 H         1 <0>         0.0802
     22 H3         -0.2584    2.6237   -0.1048 H         1 <0>         0.1088
     23 H4         -0.3390    2.3058    1.6447 H         1 <0>         0.0811
     24 H5         -0.8007    0.2460    0.3438 H         1 <0>         0.1339
     25 H6          0.7795    0.4000   -0.4609 H         1 <0>         0.1333
     26 H7          1.8126    0.2300    1.6816 H         1 <0>         0.4258
     27 H8         -0.1534   -1.8976    1.2045 H         1 <0>         0.1488
     28 H9          1.4268   -1.7435    0.3998 H         1 <0>         0.1469
     29 H10         3.4053   -2.4652    1.4685 H         1 <0>         0.1722
     30 H11         3.2075   -4.0890    5.4075 H         1 <0>         0.1709
     31 H12         0.8595   -3.3737    5.5893 H         1 <0>         0.1653
     32 H13        -0.8691   -4.4354    4.9705 H         1 <0>         0.0825
     33 H14        -2.1726   -3.8616    6.0381 H         1 <0>         0.0936
     34 H15        -2.4068   -3.8715    4.2737 H         1 <0>         0.0847
     35 H16        -2.7053   -1.8099    7.0347 H         1 <0>         0.4085
     36 H17        -3.6613   -0.5898    6.3867 H         1 <0>         0.4180
     37 H18         0.3499    0.0874    2.4265 H         1 <0>         0.4306
@<TRIPOS>BOND
     1    1    2 1
     2    1   21 1
     3    1   22 1
     4    1   23 1
     5    2    3 1
     6    2   24 1
     7    2   25 1
     8    3    4 1
     9    3   26 1
    10    3   37 1
    11    4    5 1
    12    4   27 1
    13    4   28 1
    14    5   10 ar
    15    5    6 ar
    16    6    7 ar
    17    6   29 1
    18    7    8 ar
    19    7   18 1
    20    8    9 ar
    21    8   30 1
    22    9   10 ar
    23    9   31 1
    24   10   11 1
    25   11   12 1
    26   12   13 1
    27   12   14 1
    28   12   15 1
    29   14   32 1
    30   14   33 1
    31   14   34 1
    32   15   16 2
    33   15   17 am
    34   17   35 1
    35   17   36 1
    36   18   19 2
    37   18   20 1
