@<TRIPOS>MOLECULE
ZINC06410104
   65    69     0     0     0
SMALL
USER_CHARGES
3-[(R)-azepan-1-yl-[1-[(4-methoxyphenyl)methyl]tetrazol-5-yl]methyl]-7-methyl-1H-quinolin-2-one
@<TRIPOS>ATOM
      1 C1          2.4565    3.9193    0.0001 C.3       1 <0>        -0.1334
      2 C2          1.1513    3.1661    0.0080 C.ar      1 <0>         0.0052
      3 C3          1.1592    1.7777    0.0005 C.ar      1 <0>        -0.1449
      4 C4         -0.0126    1.0758    0.0080 C.ar      1 <0>        -0.0359
      5 C5         -1.2317    1.7617    0.0174 C.ar      1 <0>        -0.1644
      6 C6         -2.5061    1.0410    0.0297 C.2       1 <0>         0.0729
      7 C7         -3.6562    1.7591    0.0432 C.2       1 <0>        -0.2851
      8 C8         -3.6133    3.1698    0.0500 C.2       1 <0>         0.5437
      9 O1         -4.6590    3.7960    0.0618 O.2       1 <0>        -0.5216
     10 N1         -2.4479    3.8403    0.0434 N.am      1 <0>        -0.6164
     11 H1         -2.4545    4.8103    0.0487 H         1 <0>         0.4282
     12 C9         -1.2438    3.1692    0.0296 C.ar      1 <0>         0.2081
     13 C10        -0.0378    3.8625    0.0222 C.ar      1 <0>        -0.1714
     14 C11        -4.9850    1.0484    0.0505 C.3       1 <0>         0.2142
     15 H2         -4.8219   -0.0262    0.1333 H         1 <0>         0.1553
     16 C12        -5.7217    1.3474   -1.2296 C.2       1 <0>         0.1149
     17 N2         -6.3270    2.4676   -1.5409 N.2       1 <0>        -0.2482
     18 N3         -6.8360    2.3315   -2.7166 N.2       1 <0>        -0.0556
     19 N4         -6.5711    1.1536   -3.1635 N.2       1 <0>        -0.0533
     20 N5         -5.8809    0.5182   -2.2778 N.pl3     1 <0>        -0.2761
     21 C13        -5.3697   -0.8501   -2.3903 C.3       1 <0>         0.1498
     22 C14        -6.3954   -1.8153   -1.8541 C.ar      1 <0>        -0.1796
     23 C15        -6.3768   -2.1703   -0.5179 C.ar      1 <0>        -0.0679
     24 C16        -7.3194   -3.0504   -0.0227 C.ar      1 <0>        -0.2136
     25 C17        -8.2782   -3.5870   -0.8697 C.ar      1 <0>         0.1605
     26 C18        -8.2912   -3.2336   -2.2112 C.ar      1 <0>        -0.1450
     27 C19        -7.3499   -2.3487   -2.7003 C.ar      1 <0>        -0.0371
     28 O2         -9.2035   -4.4570   -0.3861 O.3       1 <0>        -0.3071
     29 C20        -9.1298   -4.7754    1.0050 C.3       1 <0>         0.0228
     30 C21        -5.0058    1.4266    2.4512 C.3       1 <0>         0.0088
     31 C22        -5.8551    1.6288    3.6765 C.3       1 <0>        -0.1413
     32 C23        -6.3102    0.2468    4.1903 C.3       1 <0>        -0.1301
     33 C24        -7.4201   -0.2922    3.4120 C.3       1 <0>        -0.1304
     34 C25        -7.0458   -0.4989    1.9293 C.3       1 <0>        -0.1441
     35 C26        -7.0971    0.8341    1.2337 C.3       1 <0>        -0.0009
     36 H3          2.7618    4.1064   -1.0294 H         1 <0>         0.0880
     37 H4          2.3311    4.8690    0.5202 H         1 <0>         0.0783
     38 H5          3.2207    3.3273    0.5038 H         1 <0>         0.0812
     39 H6          2.1003    1.2480   -0.0109 H         1 <0>         0.1416
     40 H7          0.0021   -0.0041    0.0020 H         1 <0>         0.1442
     41 H8         -2.5296   -0.0387    0.0244 H         1 <0>         0.1570
     42 H9         -0.0333    4.9425    0.0280 H         1 <0>         0.1435
     43 H10        -5.1687   -1.0780   -3.4371 H         1 <0>         0.1358
     44 H11        -4.4484   -0.9422   -1.8150 H         1 <0>         0.1161
     45 H12        -5.6275   -1.7557    0.1402 H         1 <0>         0.1164
     46 H13        -7.3072   -3.3240    1.0220 H         1 <0>         0.1385
     47 H14        -9.0368   -3.6497   -2.8725 H         1 <0>         0.1437
     48 H15        -7.3598   -2.0729   -3.7445 H         1 <0>         0.1413
     49 H16        -9.9233   -5.4781    1.2595 H         1 <0>         0.1095
     50 H17        -8.1616   -5.2259    1.2239 H         1 <0>         0.0611
     51 H18        -9.2482   -3.8652    1.5929 H         1 <0>         0.0577
     52 H19        -4.5354    0.4450    2.5077 H         1 <0>         0.1278
     53 H20        -4.2255    2.1875    2.4349 H         1 <0>         0.1179
     54 H21        -6.7277    2.2304    3.4220 H         1 <0>         0.0889
     55 H22        -5.2717    2.1322    4.4474 H         1 <0>         0.1128
     56 H23        -6.6207    0.3409    5.2309 H         1 <0>         0.0873
     57 H24        -5.4701   -0.4455    4.1348 H         1 <0>         0.0735
     58 H25        -8.2618    0.3978    3.4714 H         1 <0>         0.0767
     59 H26        -7.7174   -1.2501    3.8386 H         1 <0>         0.0855
     60 H27        -7.7561   -1.1823    1.4641 H         1 <0>         0.1125
     61 H28        -6.0394   -0.9114    1.8566 H         1 <0>         0.0831
     62 H29        -7.8076    1.4755    1.7552 H         1 <0>         0.1338
     63 H30        -7.4463    0.6843    0.2121 H         1 <0>         0.1132
     64 N6         -5.7846    1.5634    1.1733 N.4       1 <0>        -0.3974
     65 H31        -5.9749    2.5599    1.0152 H         1 <0>         0.4494
@<TRIPOS>BOND
     1    1    2 1
     2    1   36 1
     3    1   37 1
     4    1   38 1
     5    2   13 ar
     6    2    3 ar
     7    3    4 ar
     8    3   39 1
     9    4    5 ar
    10    4   40 1
    11    5   12 ar
    12    5    6 1
    13    6    7 2
    14    6   41 1
    15    7    8 1
    16    7   14 1
    17    8    9 2
    18    8   10 am
    19   10   11 1
    20   10   12 1
    21   12   13 ar
    22   13   42 1
    23   14   15 1
    24   14   16 1
    25   14   64 1
    26   16   20 1
    27   16   17 2
    28   17   18 1
    29   18   19 2
    30   19   20 1
    31   20   21 1
    32   21   22 1
    33   21   43 1
    34   21   44 1
    35   22   27 ar
    36   22   23 ar
    37   23   24 ar
    38   23   45 1
    39   24   25 ar
    40   24   46 1
    41   25   26 ar
    42   25   28 1
    43   26   27 ar
    44   26   47 1
    45   27   48 1
    46   28   29 1
    47   29   49 1
    48   29   50 1
    49   29   51 1
    50   30   31 1
    51   30   52 1
    52   30   53 1
    53   30   64 1
    54   31   32 1
    55   31   54 1
    56   31   55 1
    57   32   33 1
    58   32   56 1
    59   32   57 1
    60   33   34 1
    61   33   58 1
    62   33   59 1
    63   34   35 1
    64   34   60 1
    65   34   61 1
    66   35   62 1
    67   35   63 1
    68   35   64 1
    69   64   65 1
