@<TRIPOS>MOLECULE
ZINC66741057
   47    50     0     0     0
SMALL
USER_CHARGES

@<TRIPOS>ATOM
      1 C1         -0.0184    1.5028    0.0103 C.3       1 <0>        -0.0746
      2 C2          0.0021   -0.0041    0.0020 C.2       1 <0>        -0.0272
      3 C3          0.0080   -0.7950   -1.0751 C.2       1 <0>         0.0982
      4 C4          0.0219   -2.1377   -0.5738 C.2       1 <0>        -0.0511
      5 N1          0.0315   -2.0622    0.7236 N.2       1 <0>        -0.1970
      6 N2          0.0241   -0.8243    1.0940 N.pl3     1 <0>        -0.3912
      7 H1          0.0304   -0.5211    2.0153 H         1 <0>         0.4502
      8 C5          0.0146   -3.2677   -1.5232 C.2       1 <0>         0.6217
      9 O1         -0.1484   -4.4131   -1.1489 O.2       1 <0>        -0.5136
     10 N3          0.1977   -2.9679   -2.8309 N.am      1 <0>        -0.7293
     11 C6          0.5671   -1.6392   -3.3033 C.3       1 <0>         0.4415
     12 H2          0.2014   -1.5121   -4.3223 H         1 <0>         0.1178
     13 N4          0.0073   -0.5712   -2.4587 N.pl3     1 <0>        -0.7288
     14 C7          2.0695   -1.5215   -3.3056 C.ar      1 <0>        -0.1285
     15 C8          2.6654   -0.2923   -3.0930 C.ar      1 <0>        -0.0835
     16 C9          4.0432   -0.1792   -3.0942 C.ar      1 <0>        -0.1774
     17 C10         4.8301   -1.2994   -3.3084 C.ar      1 <0>         0.1088
     18 C11         4.2303   -2.5367   -3.5219 C.ar      1 <0>         0.1005
     19 C12         2.8488   -2.6440   -3.5147 C.ar      1 <0>        -0.1504
     20 O2          4.9984   -3.6391   -3.7326 O.3       1 <0>        -0.3048
     21 C13         4.3142   -4.8756   -3.9447 C.3       1 <0>         0.0251
     22 O3          6.1856   -1.1897   -3.3103 O.3       1 <0>        -0.2964
     23 C14         6.7316    0.1115   -3.0848 C.3       1 <0>         0.1006
     24 C15         8.2363    0.0383   -3.1221 C.ar      1 <0>        -0.0924
     25 C16         8.9447   -0.2130   -1.9619 C.ar      1 <0>        -0.0809
     26 C17        10.3248   -0.2803   -1.9954 C.ar      1 <0>        -0.1133
     27 C18        10.9973   -0.0961   -3.1904 C.ar      1 <0>        -0.0244
     28 C19        10.2878    0.1553   -4.3512 C.ar      1 <0>        -0.1134
     29 C20         8.9074    0.2167   -4.3174 C.ar      1 <0>        -0.0807
     30 Cl1        12.7308   -0.1799   -3.2331 Cl        1 <0>        -0.0650
     31 H3          1.0042    1.8801    0.0026 H         1 <0>         0.0758
     32 H4         -0.5455    1.8639   -0.8728 H         1 <0>         0.0792
     33 H5         -0.5286    1.8543    0.9071 H         1 <0>         0.0706
     34 H6          0.0774   -3.6729   -3.4862 H         1 <0>         0.4124
     35 H7         -0.3445    0.2479   -2.8411 H         1 <0>         0.4152
     36 H8          2.0532    0.5816   -2.9260 H         1 <0>         0.1296
     37 H9          4.5062    0.7824   -2.9285 H         1 <0>         0.1355
     38 H10         2.3809   -3.6039   -3.6765 H         1 <0>         0.1358
     39 H11         3.6755   -4.7913   -4.8239 H         1 <0>         0.0554
     40 H12         5.0423   -5.6718   -4.0996 H         1 <0>         0.1021
     41 H13         3.7029   -5.1069   -3.0724 H         1 <0>         0.0560
     42 H14         6.3816    0.7918   -3.8612 H         1 <0>         0.0742
     43 H15         6.4096    0.4766   -2.1096 H         1 <0>         0.0731
     44 H16         8.4197   -0.3564   -1.0290 H         1 <0>         0.1344
     45 H17        10.8782   -0.4762   -1.0888 H         1 <0>         0.1374
     46 H18        10.8122    0.2994   -5.2842 H         1 <0>         0.1376
     47 H19         8.3531    0.4082   -5.2244 H         1 <0>         0.1349
@<TRIPOS>BOND
     1    1    2 1
     2    1   31 1
     3    1   32 1
     4    1   33 1
     5    2    6 1
     6    2    3 2
     7    3   13 1
     8    3    4 1
     9    4    5 2
    10    4    8 1
    11    5    6 1
    12    6    7 1
    13    8    9 2
    14    8   10 am
    15   10   11 1
    16   10   34 1
    17   11   12 1
    18   11   13 1
    19   11   14 1
    20   13   35 1
    21   14   19 ar
    22   14   15 ar
    23   15   16 ar
    24   15   36 1
    25   16   17 ar
    26   16   37 1
    27   17   18 ar
    28   17   22 1
    29   18   19 ar
    30   18   20 1
    31   19   38 1
    32   20   21 1
    33   21   39 1
    34   21   40 1
    35   21   41 1
    36   22   23 1
    37   23   24 1
    38   23   42 1
    39   23   43 1
    40   24   29 ar
    41   24   25 ar
    42   25   26 ar
    43   25   44 1
    44   26   27 ar
    45   26   45 1
    46   27   28 ar
    47   27   30 1
    48   28   29 ar
    49   28   46 1
    50   29   47 1
