@<TRIPOS>MOLECULE
ZINC12889661
   59    60     0     0     0
SMALL
USER_CHARGES
(2S,3S)-3-methyl-2-[[(2S)-4-methyl-2-[(3-oxo2,4-dihydroquinoxaline-1-carbonyl)amino]pentanoyl]amino]pentanoic acid
@<TRIPOS>ATOM
      1 C1          3.1794   -4.6481    2.4068 C.3       1 <0>        -0.1476
      2 C2          1.9138   -4.1616    1.6978 C.3       1 <0>        -0.1261
      3 C3          1.8205   -2.6385    1.8088 C.3       1 <0>        -0.0753
      4 H1          2.7353   -2.1893    1.4221 H         1 <0>         0.0585
      5 C4          1.6395   -2.2442    3.2760 C.3       1 <0>        -0.1457
      6 C5          0.6242   -2.1402    0.9955 C.3       1 <0>         0.0998
      7 H2          0.7090   -2.4968   -0.0310 H         1 <0>         0.0864
      8 C6         -0.6507   -2.6632    1.6054 C.2       1 <0>         0.4661
      9 O1         -1.4899   -1.8916    2.0057 O.co2     1 <0>        -0.6299
     10 N1          0.6044   -0.6754    1.0035 N.am      1 <0>        -0.6908
     11 C7          0.0021   -0.0041    0.0020 C.2       1 <0>         0.5121
     12 O2         -0.5235   -0.6127   -0.9059 O.2       1 <0>        -0.5429
     13 C8         -0.0184    1.5028    0.0103 C.3       1 <0>         0.1462
     14 H3          1.0042    1.8801    0.0026 H         1 <0>         0.1153
     15 C9         -0.7345    1.9962    1.2691 C.3       1 <0>        -0.1210
     16 C10        -0.6466    3.5220    1.3409 C.3       1 <0>        -0.0899
     17 C11        -1.4673    4.0247    2.5303 C.3       1 <0>        -0.1466
     18 C12         0.8144    3.9410    1.5159 C.3       1 <0>        -0.1385
     19 N2         -0.7269    1.9881   -1.1766 N.am      1 <0>        -0.7153
     20 C13        -0.4624    3.2164   -1.6640 C.2       1 <0>         0.7154
     21 O3          0.3643    3.9219   -1.1187 O.2       1 <0>        -0.5546
     22 N3         -1.1142    3.6629   -2.7559 N.am      1 <0>        -0.5722
     23 C14        -2.1141    2.8271   -3.4374 C.3       1 <0>         0.0889
     24 C15        -1.9362    2.9554   -4.9247 C.2       1 <0>         0.5149
     25 O4         -2.2433    2.0298   -5.6460 O.2       1 <0>        -0.5104
     26 N4         -1.4366    4.0826   -5.4656 N.am      1 <0>        -0.6564
     27 C16        -1.0278    5.1457   -4.6526 C.ar      1 <0>         0.1235
     28 C17        -0.8562    4.9387   -3.2826 C.ar      1 <0>         0.1378
     29 C18        -0.4410    5.9766   -2.4689 C.ar      1 <0>        -0.0895
     30 C19        -0.1988    7.2240   -3.0172 C.ar      1 <0>        -0.1196
     31 C20        -0.3719    7.4329   -4.3729 C.ar      1 <0>        -0.1072
     32 C21        -0.7856    6.3983   -5.1924 C.ar      1 <0>        -0.1343
     33 H4          4.0542   -4.1955    1.9398 H         1 <0>         0.0414
     34 H5          3.1398   -4.3621    3.4578 H         1 <0>         0.0508
     35 H6          3.2459   -5.7332    2.3277 H         1 <0>         0.0479
     36 H7          1.0391   -4.6142    2.1647 H         1 <0>         0.1087
     37 H8          1.9535   -4.4476    0.6467 H         1 <0>         0.0527
     38 H9          2.4918   -2.5992    3.8555 H         1 <0>         0.0522
     39 H10         1.5730   -1.1591    3.3551 H         1 <0>         0.0431
     40 H11         0.7248   -2.6934    3.6628 H         1 <0>         0.0668
     41 H12         1.0247   -0.1886    1.7297 H         1 <0>         0.3933
     42 H13        -1.7811    1.6938    1.2338 H         1 <0>         0.0750
     43 H14        -0.2607    1.5631    2.1500 H         1 <0>         0.0802
     44 H15        -1.0402    3.9523    0.4201 H         1 <0>         0.0742
     45 H16        -1.0737    3.5943    3.4512 H         1 <0>         0.0533
     46 H17        -1.4047    5.1117    2.5815 H         1 <0>         0.0503
     47 H18        -2.5082    3.7262    2.4056 H         1 <0>         0.0503
     48 H19         0.8771    5.0280    1.5671 H         1 <0>         0.0463
     49 H20         1.2080    3.5106    2.4368 H         1 <0>         0.0417
     50 H21         1.3991    3.5829    0.6686 H         1 <0>         0.0720
     51 H22        -1.3864    1.4253   -1.6116 H         1 <0>         0.4069
     52 H23        -1.9809    1.7861   -3.1430 H         1 <0>         0.1286
     53 H24        -3.1153    3.1598   -3.1633 H         1 <0>         0.1141
     54 H25        -1.3595    4.1588   -6.4295 H         1 <0>         0.4139
     55 H26        -0.3058    5.8144   -1.4097 H         1 <0>         0.1538
     56 H27         0.1260    8.0367   -2.3843 H         1 <0>         0.1293
     57 H28        -0.1828    8.4091   -4.7944 H         1 <0>         0.1282
     58 H29        -0.9192    6.5666   -6.2508 H         1 <0>         0.1310
     59 O5         -0.8541   -3.9864    1.7039 O.co2     1 <0>        -0.7574
@<TRIPOS>BOND
     1    1    2 1
     2    1   33 1
     3    1   34 1
     4    1   35 1
     5    2    3 1
     6    2   36 1
     7    2   37 1
     8    3    4 1
     9    3    5 1
    10    3    6 1
    11    5   38 1
    12    5   39 1
    13    5   40 1
    14    6    7 1
    15    6    8 1
    16    6   10 1
    17    8    9 2
    18    8   59 1
    19   10   11 am
    20   10   41 1
    21   11   12 2
    22   11   13 1
    23   13   14 1
    24   13   15 1
    25   13   19 1
    26   15   16 1
    27   15   42 1
    28   15   43 1
    29   16   17 1
    30   16   18 1
    31   16   44 1
    32   17   45 1
    33   17   46 1
    34   17   47 1
    35   18   48 1
    36   18   49 1
    37   18   50 1
    38   19   20 am
    39   19   51 1
    40   20   21 2
    41   20   22 am
    42   22   28 1
    43   22   23 1
    44   23   24 1
    45   23   52 1
    46   23   53 1
    47   24   25 2
    48   24   26 am
    49   26   27 1
    50   26   54 1
    51   27   32 ar
    52   27   28 ar
    53   28   29 ar
    54   29   30 ar
    55   29   55 1
    56   30   31 ar
    57   30   56 1
    58   31   32 ar
    59   31   57 1
    60   32   58 1
