@<TRIPOS>MOLECULE
ZINC39344735
   48    50     0     0     0
SMALL
USER_CHARGES

@<TRIPOS>ATOM
      1 C1         -0.0187    1.5258    0.0104 C.3       1 <0>        -0.1522
      2 C2          0.0021   -0.0041    0.0020 C.3       1 <0>         0.0597
      3 O1         -1.3386   -0.4987    0.0122 O.3       1 <0>        -0.3368
      4 C3         -1.4969   -1.8366    0.0065 C.2       1 <0>         0.5544
      5 O2         -0.5236   -2.5635   -0.0067 O.2       1 <0>        -0.4892
      6 C4         -2.8529   -2.4192    0.0163 C.2       1 <0>         0.0209
      7 C5         -3.1797   -3.7850    0.0177 C.2       1 <0>        -0.1558
      8 C6         -4.5339   -3.8475    0.0312 C.2       1 <0>         0.0223
      9 N1         -4.9873   -2.5820    0.0326 N.pl3     1 <0>        -0.2665
     10 N2         -3.9978   -1.7570    0.0312 N.2       1 <0>        -0.2249
     11 C7         -6.4008   -2.1970    0.0411 C.3       1 <0>         0.1171
     12 C8         -6.8837   -2.0614    1.4866 C.3       1 <0>        -0.1903
     13 C9         -8.3599   -1.6593    1.4955 C.3       1 <0>         0.4635
     14 F1         -9.1142   -2.6396    0.8418 F         1 <0>        -0.1800
     15 F2         -8.8015   -1.5353    2.8172 F         1 <0>        -0.1746
     16 F3         -8.5139   -0.4354    0.8356 F         1 <0>        -0.1771
     17 C10        -5.3239   -5.1304    0.0466 C.3       1 <0>        -0.0698
     18 C11        -4.4112   -6.2777   -0.4053 C.3       1 <0>         0.1070
     19 N3         -3.1154   -6.1677    0.2808 N.am      1 <0>        -0.6117
     20 C12        -2.2742   -4.9876    0.0039 C.3       1 <0>         0.1960
     21 C13        -2.7061   -7.1212    1.1409 C.2       1 <0>         0.5611
     22 O3         -1.6343   -7.0152    1.6986 O.2       1 <0>        -0.4999
     23 C14        -3.5801   -8.3191    1.4096 C.3       1 <0>        -0.0662
     24 H1         -4.6257   -8.0217    1.4884 H         1 <0>         0.1694
     25 C15        -3.4004   -9.3686    0.3270 C.2       1 <0>        -0.1620
     26 C16        -2.9309  -10.4312    0.9844 C.2       1 <0>        -0.0180
     27 N4         -2.8058  -10.1632    2.3031 N.2       1 <0>        -0.1553
     28 N5         -3.1441   -9.0188    2.6301 N.2       1 <0>        -0.1180
     29 C17        -2.5869  -11.7508    0.3431 C.3       1 <0>        -0.0904
     30 H2          1.0039    1.9031    0.0027 H         1 <0>         0.0820
     31 H3         -0.5459    1.8868   -0.8726 H         1 <0>         0.0675
     32 H4         -0.5289    1.8773    0.9072 H         1 <0>         0.0676
     33 H5          0.5123   -0.3556   -0.8948 H         1 <0>         0.0710
     34 H6          0.5293   -0.3651    0.8851 H         1 <0>         0.0712
     35 H7         -6.5208   -1.2434   -0.4730 H         1 <0>         0.1237
     36 H8         -6.9885   -2.9608   -0.4681 H         1 <0>         0.1196
     37 H9         -6.7638   -3.0150    2.0007 H         1 <0>         0.1205
     38 H10        -6.2961   -1.2976    1.9958 H         1 <0>         0.1262
     39 H11        -5.6837   -5.3259    1.0568 H         1 <0>         0.0940
     40 H12        -6.1703   -5.0466   -0.6351 H         1 <0>         0.1011
     41 H13        -4.8753   -7.2318   -0.1553 H         1 <0>         0.0988
     42 H14        -4.2585   -6.2182   -1.4829 H         1 <0>         0.0912
     43 H15        -1.8044   -5.0877   -0.9745 H         1 <0>         0.0926
     44 H16        -1.5106   -4.8866    0.7751 H         1 <0>         0.1149
     45 H17        -3.6053   -9.2768   -0.7294 H         1 <0>         0.1789
     46 H18        -1.5427  -11.7418    0.0308 H         1 <0>         0.0835
     47 H19        -2.7445  -12.5557    1.0610 H         1 <0>         0.0831
     48 H20        -3.2248  -11.9095   -0.5264 H         1 <0>         0.0800
@<TRIPOS>BOND
     1    1    2 1
     2    1   30 1
     3    1   31 1
     4    1   32 1
     5    2    3 1
     6    2   33 1
     7    2   34 1
     8    3    4 1
     9    4    5 2
    10    4    6 1
    11    6   10 2
    12    6    7 1
    13    7   20 1
    14    7    8 2
    15    8    9 1
    16    8   17 1
    17    9   10 1
    18    9   11 1
    19   11   12 1
    20   11   35 1
    21   11   36 1
    22   12   13 1
    23   12   37 1
    24   12   38 1
    25   13   14 1
    26   13   15 1
    27   13   16 1
    28   17   18 1
    29   17   39 1
    30   17   40 1
    31   18   19 1
    32   18   41 1
    33   18   42 1
    34   19   20 1
    35   19   21 am
    36   20   43 1
    37   20   44 1
    38   21   22 2
    39   21   23 1
    40   23   24 1
    41   23   28 1
    42   23   25 1
    43   25   26 2
    44   25   45 1
    45   26   27 1
    46   26   29 1
    47   27   28 2
    48   29   46 1
    49   29   47 1
    50   29   48 1
