@<TRIPOS>MOLECULE
ZINC13623519
   64    66     0     0     0
SMALL
USER_CHARGES
N-[[[(3R)-1-benzyl-5-oxo-pyrrolidine-3-carbonyl]amino]carbamothioyl]-4-isopentyloxy-benzamide
@<TRIPOS>ATOM
      1 C1          3.1034    3.9512   -1.3138 C.3       1 <0>        -0.1546
      2 C2          2.3806    4.2459    0.0021 C.3       1 <0>        -0.0931
      3 C3          2.1633    5.7542    0.1380 C.3       1 <0>        -0.1487
      4 C4          1.0269    3.5328    0.0112 C.3       1 <0>        -0.1163
      5 C5          1.2479    2.0188    0.0010 C.3       1 <0>         0.0540
      6 O1         -0.0163    1.3528    0.0095 O.3       1 <0>        -0.3072
      7 C6          0.0021   -0.0041    0.0020 C.ar      1 <0>         0.1683
      8 C7          1.2162   -0.6807   -0.0190 C.ar      1 <0>        -0.2159
      9 C8          1.2393   -2.0574   -0.0217 C.ar      1 <0>        -0.0465
     10 C9          0.0396   -2.7745   -0.0141 C.ar      1 <0>        -0.1811
     11 C10        -1.1791   -2.0903    0.0016 C.ar      1 <0>        -0.0084
     12 C11        -1.1933   -0.7135    0.0096 C.ar      1 <0>        -0.1564
     13 C12         0.0596   -4.2496   -0.0232 C.2       1 <0>         0.5416
     14 O2         -0.9847   -4.8716   -0.0170 O.2       1 <0>        -0.4020
     15 N1          1.2358   -4.9075   -0.0384 N.am      1 <0>        -0.6444
     16 C13         1.2541   -6.2551   -0.0467 C.2       1 <0>         0.5158
     17 S1         -0.2167   -7.1312   -0.0380 S.2       1 <0>        -0.4506
     18 N2          2.4303   -6.9130   -0.0620 N.pl3     1 <0>        -0.4596
     19 N3          3.6339   -6.1961   -0.0691 N.am      1 <0>        -0.5495
     20 C14         4.8101   -6.8540   -0.0843 C.2       1 <0>         0.5339
     21 O3          4.8265   -8.0667   -0.0918 O.2       1 <0>        -0.5042
     22 C15         6.1048   -6.0828   -0.0921 C.3       1 <0>        -0.1149
     23 H1          6.1564   -5.4027    0.7581 H         1 <0>         0.1309
     24 C16         6.2862   -5.3193   -1.4244 C.3       1 <0>        -0.1497
     25 C17         7.7687   -5.4168   -1.7090 C.2       1 <0>         0.5222
     26 O4          8.3710   -4.7239   -2.5015 O.2       1 <0>        -0.5169
     27 N4          8.3215   -6.3832   -0.9558 N.am      1 <0>        -0.6119
     28 C18         7.3178   -7.0392   -0.1094 C.3       1 <0>         0.1166
     29 C19         9.7432   -6.7361   -0.9766 C.3       1 <0>         0.1677
     30 C20         9.9808   -7.8034   -2.0136 C.ar      1 <0>        -0.1177
     31 C21         9.8977   -9.1381   -1.6634 C.ar      1 <0>        -0.1032
     32 C22        10.1113  -10.1171   -2.6156 C.ar      1 <0>        -0.1227
     33 C23        10.4170   -9.7615   -3.9160 C.ar      1 <0>        -0.1124
     34 C24        10.5053   -8.4269   -4.2650 C.ar      1 <0>        -0.1224
     35 C25        10.2874   -7.4478   -3.3138 C.ar      1 <0>        -0.0968
     36 H2          4.0677    4.4592   -1.3203 H         1 <0>         0.0589
     37 H3          3.2582    2.8766   -1.4106 H         1 <0>         0.0541
     38 H4          2.4992    4.3079   -2.1480 H         1 <0>         0.0585
     39 H5          2.9847    3.8892    0.8363 H         1 <0>         0.0729
     40 H6          1.6484    5.9641    1.0755 H         1 <0>         0.0571
     41 H7          3.1277    6.2623    0.1316 H         1 <0>         0.0589
     42 H8          1.5591    6.1109   -0.6961 H         1 <0>         0.0575
     43 H9          0.4575    3.8228   -0.8718 H         1 <0>         0.0767
     44 H10         0.4745    3.8133    0.9080 H         1 <0>         0.0763
     45 H11         1.8173    1.7288    0.8840 H         1 <0>         0.0656
     46 H12         1.8004    1.7384   -0.8958 H         1 <0>         0.0689
     47 H13         2.1427   -0.1257   -0.0294 H         1 <0>         0.1373
     48 H14         2.1831   -2.5823   -0.0336 H         1 <0>         0.1212
     49 H15        -2.1082   -2.6407    0.0072 H         1 <0>         0.1498
     50 H16        -2.1346   -0.1840    0.0215 H         1 <0>         0.1441
     51 H17         2.0692   -4.4111   -0.0434 H         1 <0>         0.3997
     52 H18         2.4434   -7.8829   -0.0679 H         1 <0>         0.4586
     53 H19         3.6207   -5.2262   -0.0632 H         1 <0>         0.4195
     54 H20         5.7129   -5.7970   -2.2190 H         1 <0>         0.1121
     55 H21         5.9873   -4.2773   -1.3107 H         1 <0>         0.1155
     56 H22         7.7059   -7.1745    0.9001 H         1 <0>         0.0932
     57 H23         7.0336   -8.0012   -0.5358 H         1 <0>         0.0958
     58 H24        10.3331   -5.8530   -1.2223 H         1 <0>         0.0951
     59 H25        10.0393   -7.1096    0.0037 H         1 <0>         0.0921
     60 H26         9.6625   -9.4159   -0.6466 H         1 <0>         0.1215
     61 H27        10.0420  -11.1598   -2.3430 H         1 <0>         0.1237
     62 H28        10.5865  -10.5264   -4.6593 H         1 <0>         0.1229
     63 H29        10.7441   -8.1491   -5.2810 H         1 <0>         0.1232
     64 H30        10.3564   -6.4051   -3.5865 H         1 <0>         0.1253
@<TRIPOS>BOND
     1    1    2 1
     2    1   36 1
     3    1   37 1
     4    1   38 1
     5    2    3 1
     6    2    4 1
     7    2   39 1
     8    3   40 1
     9    3   41 1
    10    3   42 1
    11    4    5 1
    12    4   43 1
    13    4   44 1
    14    5    6 1
    15    5   45 1
    16    5   46 1
    17    6    7 1
    18    7   12 ar
    19    7    8 ar
    20    8    9 ar
    21    8   47 1
    22    9   10 ar
    23    9   48 1
    24   10   11 ar
    25   10   13 1
    26   11   12 ar
    27   11   49 1
    28   12   50 1
    29   13   14 2
    30   13   15 am
    31   15   16 1
    32   15   51 1
    33   16   17 2
    34   16   18 1
    35   18   19 1
    36   18   52 1
    37   19   20 am
    38   19   53 1
    39   20   21 2
    40   20   22 1
    41   22   23 1
    42   22   28 1
    43   22   24 1
    44   24   25 1
    45   24   54 1
    46   24   55 1
    47   25   26 2
    48   25   27 am
    49   27   28 1
    50   27   29 1
    51   28   56 1
    52   28   57 1
    53   29   30 1
    54   29   58 1
    55   29   59 1
    56   30   35 ar
    57   30   31 ar
    58   31   32 ar
    59   31   60 1
    60   32   33 ar
    61   32   61 1
    62   33   34 ar
    63   33   62 1
    64   34   35 ar
    65   34   63 1
    66   35   64 1
