@<TRIPOS>MOLECULE
ZINC21877608
   76    80     0     0     0
SMALL
USER_CHARGES
(6R)-N-cyclopentyl-5-ethyl-6-methyl-4-oxo-2-[4-(1-piperidyl)piperidine-1-carbonyl]-7H-pyrazolo[1,5-d]pyrazine-6-carboxamide
@<TRIPOS>ATOM
      1 C1         -2.0030    5.8439    8.8215 C.3       1 <0>        -0.1720
      2 C2         -2.8387    5.9271    7.5426 C.3       1 <0>         0.0752
      3 N1         -2.5793    4.7483    6.7123 N.am      1 <0>        -0.6083
      4 C3         -1.5444    4.7696    5.8385 C.2       1 <0>         0.6007
      5 O1         -0.7073    5.6518    5.8571 O.2       1 <0>        -0.4820
      6 C4         -1.4879    3.6660    4.8651 C.2       1 <0>        -0.0405
      7 C5         -0.5158    3.2852    4.0042 C.2       1 <0>        -0.0760
      8 C6         -1.0301    2.1441    3.3476 C.2       1 <0>        -0.0286
      9 N2         -2.2365    1.9111    3.8386 N.2       1 <0>        -0.2251
     10 N3         -2.5383    2.7847    4.7185 N.pl3     1 <0>        -0.2652
     11 C7         -3.7721    2.9361    5.5000 C.3       1 <0>         0.1177
     12 C8         -3.4419    3.5795    6.8456 C.3       1 <0>         0.1456
     13 C9         -2.7383    2.5465    7.7281 C.3       1 <0>        -0.1577
     14 C10        -4.7265    3.9961    7.5145 C.2       1 <0>         0.5256
     15 O2         -5.1544    3.3608    8.4548 O.2       1 <0>        -0.5019
     16 N4         -5.3999    5.0747    7.0676 N.am      1 <0>        -0.7340
     17 C11        -6.7033    5.4149    7.6436 C.3       1 <0>         0.1334
     18 C12        -7.8249    4.6725    6.8882 C.3       1 <0>        -0.1354
     19 C13        -8.9904    5.6916    6.8416 C.3       1 <0>        -0.1254
     20 C14        -8.2583    7.0382    6.6187 C.3       1 <0>        -0.1202
     21 C15        -6.9788    6.9190    7.4723 C.3       1 <0>        -0.1271
     22 C16        -0.3429    1.3518    2.3068 C.2       1 <0>         0.6135
     23 O3          0.8284    1.5613    2.0577 O.2       1 <0>        -0.5083
     24 N5         -1.0148    0.3969    1.6335 N.am      1 <0>        -0.6109
     25 C17        -0.3672   -0.3478    0.5451 C.3       1 <0>         0.1134
     26 C18        -1.2386   -0.2484   -0.7110 C.3       1 <0>        -0.1555
     27 C19        -2.6553   -0.7253   -0.3831 C.3       1 <0>         0.0320
     28 C20        -3.2608    0.1738    0.6972 C.3       1 <0>        -0.1530
     29 C21        -2.4124    0.0792    1.9692 C.3       1 <0>         0.0754
     30 N6         -3.4852   -0.6627   -1.5936 N.4       1 <0>        -0.3964
     31 C22        -3.5734    0.7127   -2.1006 C.3       1 <0>        -0.0131
     32 C23        -4.3203    0.7184   -3.4363 C.3       1 <0>        -0.1453
     33 C24        -5.7228    0.1383   -3.2338 C.3       1 <0>        -0.1402
     34 C25        -5.6035   -1.2762   -2.6598 C.3       1 <0>        -0.1457
     35 C26        -4.8194   -1.2242   -1.3466 C.3       1 <0>        -0.0062
     36 H1         -2.1977    6.7290    9.4450 H         1 <0>         0.0737
     37 H2         -0.9352    5.8073    8.5600 H         1 <0>         0.0663
     38 H3         -2.2753    4.9356    9.3790 H         1 <0>         0.0582
     39 H4         -3.9065    5.9637    7.8041 H         1 <0>         0.1072
     40 H5         -2.5664    6.8354    6.9851 H         1 <0>         0.0934
     41 H6          0.4451    3.7538    3.8503 H         1 <0>         0.1810
     42 H7         -4.4785    3.5751    4.9498 H         1 <0>         0.1115
     43 H8         -4.2247    1.9474    5.6659 H         1 <0>         0.1344
     44 H9         -3.3795    1.6593    7.8364 H         1 <0>         0.0865
     45 H10        -2.5447    2.9822    8.7194 H         1 <0>         0.0841
     46 H11        -1.7849    2.2554    7.2629 H         1 <0>         0.0678
     47 H12        -4.9709    5.6996    6.2704 H         1 <0>         0.4223
     48 H13        -6.6374    5.1184    8.7008 H         1 <0>         0.0984
     49 H14        -7.4725    4.4021    5.8819 H         1 <0>         0.0671
     50 H15        -8.0963    3.7599    7.4391 H         1 <0>         0.0716
     51 H16        -9.6690    5.4350    6.0147 H         1 <0>         0.0700
     52 H17        -9.5428    5.6606    7.7923 H         1 <0>         0.0729
     53 H18        -8.0313    7.1595    5.5492 H         1 <0>         0.0678
     54 H19        -8.9020    7.8652    6.9529 H         1 <0>         0.0733
     55 H20        -7.1222    7.3804    8.4605 H         1 <0>         0.0815
     56 H21        -6.1245    7.3930    6.9668 H         1 <0>         0.0732
     57 H22         0.6245    0.0839    0.3449 H         1 <0>         0.1159
     58 H23        -0.2557   -1.4022    0.8379 H         1 <0>         0.0840
     59 H24        -1.2718    0.7967   -1.0525 H         1 <0>         0.0932
     60 H25        -0.8119   -0.8799   -1.5042 H         1 <0>         0.1030
     61 H26        -2.6417   -1.7734   -0.0494 H         1 <0>         0.1380
     62 H27        -3.2763    1.2146    0.3416 H         1 <0>         0.0895
     63 H28        -4.2878   -0.1548    0.9145 H         1 <0>         0.0974
     64 H29        -2.4684   -0.9400    2.3791 H         1 <0>         0.0801
     65 H30        -2.7819    0.7960    2.7173 H         1 <0>         0.1545
     66 H31        -4.1157    1.3368   -1.3751 H         1 <0>         0.1249
     67 H32        -2.5602    1.1157   -2.2458 H         1 <0>         0.1310
     68 H33        -4.3988    1.7507   -3.8081 H         1 <0>         0.1105
     69 H34        -3.7704    0.1065   -4.1665 H         1 <0>         0.0883
     70 H35        -6.2853    0.7745   -2.5347 H         1 <0>         0.0797
     71 H36        -6.2476    0.1020   -4.1999 H         1 <0>         0.0941
     72 H37        -6.6087   -1.6820   -2.4729 H         1 <0>         0.1115
     73 H38        -5.0759   -1.9203   -3.3786 H         1 <0>         0.0885
     74 H39        -4.7196   -2.2411   -0.9392 H         1 <0>         0.1303
     75 H40        -5.3558   -0.5910   -0.6246 H         1 <0>         0.1251
     76 H41        -3.0020   -1.2755   -2.3688 H         1 <0>         0.4399
@<TRIPOS>BOND
     1    1    2 1
     2    1   36 1
     3    1   37 1
     4    1   38 1
     5    2    3 1
     6    2   39 1
     7    2   40 1
     8    3   12 1
     9    3    4 am
    10    4    5 2
    11    4    6 1
    12    6   10 1
    13    6    7 2
    14    7    8 1
    15    7   41 1
    16    8    9 2
    17    8   22 1
    18    9   10 1
    19   10   11 1
    20   11   12 1
    21   11   42 1
    22   11   43 1
    23   12   13 1
    24   12   14 1
    25   13   44 1
    26   13   45 1
    27   13   46 1
    28   14   15 2
    29   14   16 am
    30   16   17 1
    31   16   47 1
    32   17   21 1
    33   17   18 1
    34   17   48 1
    35   18   19 1
    36   18   49 1
    37   18   50 1
    38   19   20 1
    39   19   51 1
    40   19   52 1
    41   20   21 1
    42   20   53 1
    43   20   54 1
    44   21   55 1
    45   21   56 1
    46   22   23 2
    47   22   24 am
    48   24   29 1
    49   24   25 1
    50   25   26 1
    51   25   57 1
    52   25   58 1
    53   26   27 1
    54   26   59 1
    55   26   60 1
    56   27   28 1
    57   27   30 1
    58   27   61 1
    59   28   29 1
    60   28   62 1
    61   28   63 1
    62   29   64 1
    63   29   65 1
    64   30   35 1
    65   30   31 1
    66   30   76 1
    67   31   32 1
    68   31   66 1
    69   31   67 1
    70   32   33 1
    71   32   68 1
    72   32   69 1
    73   33   34 1
    74   33   70 1
    75   33   71 1
    76   34   35 1
    77   34   72 1
    78   34   73 1
    79   35   74 1
    80   35   75 1
