@<TRIPOS>MOLECULE
ZINC06197884
   78    82     0     0     0
SMALL
USER_CHARGES
6-ethyl-3-[[(4-methoxyphenyl)methyl-(tetrahydrofuran-2-ylmethyl)amino]-(1-tert-butyltetrazol-5-yl)-methyl]-1H-quinolin-2-one
@<TRIPOS>ATOM
      1 C1         -2.9947   -0.3777    0.8152 C.3       1 <0>        -0.1513
      2 C2         -2.3553   -0.0324   -0.5313 C.3       1 <0>        -0.0884
      3 C3         -1.0856    0.7457   -0.2996 C.ar      1 <0>        -0.1034
      4 C4          0.1195    0.0704   -0.1612 C.ar      1 <0>        -0.0338
      5 C5          1.2936    0.7618    0.0452 C.ar      1 <0>        -0.1620
      6 C6          1.2724    2.1507    0.1215 C.ar      1 <0>         0.2017
      7 C7          0.0478    2.8315   -0.0136 C.ar      1 <0>        -0.1526
      8 C8         -1.1315    2.1087   -0.2225 C.ar      1 <0>        -0.0429
      9 C9          0.0358    4.2932    0.0682 C.2       1 <0>         0.0589
     10 C10         1.2099    4.9403    0.2715 C.2       1 <0>        -0.2735
     11 C11         2.4109    4.2101    0.4000 C.2       1 <0>         0.5406
     12 O1          3.4553    4.8116    0.5823 O.2       1 <0>        -0.5039
     13 N1          2.4318    2.8678    0.3267 N.am      1 <0>        -0.6209
     14 H1          3.3009    2.3825    0.4224 H         1 <0>         0.4335
     15 C12         1.2325    6.4444    0.3612 C.3       1 <0>         0.2056
     16 H2          0.2370    6.8359    0.1518 H         1 <0>         0.1581
     17 C13         1.6539    6.8587    1.7475 C.2       1 <0>         0.1266
     18 N2          2.8621    6.7915    2.2511 N.2       1 <0>        -0.2306
     19 N3          2.8158    7.2399    3.4580 N.2       1 <0>        -0.0552
     20 N4          1.6078    7.5841    3.7401 N.2       1 <0>        -0.0622
     21 N5          0.8615    7.3642    2.7109 N.pl3     1 <0>        -0.2793
     22 C14        -0.5781    7.6169    2.6100 C.3       1 <0>         0.1526
     23 C15        -1.2988    6.3192    2.2392 C.3       1 <0>        -0.1759
     24 C16        -1.1022    8.1251    3.9546 C.3       1 <0>        -0.1540
     25 C17        -0.8366    8.6702    1.5308 C.3       1 <0>        -0.1753
     26 C18         2.1381    8.4471   -0.6546 C.3       1 <0>         0.0421
     27 C19         3.0121    9.0034    0.4398 C.ar      1 <0>        -0.1947
     28 C20         2.4513    9.3814    1.6458 C.ar      1 <0>        -0.0805
     29 C21         3.2512    9.8863    2.6526 C.ar      1 <0>        -0.1918
     30 C22         4.6164   10.0250    2.4486 C.ar      1 <0>         0.1775
     31 C23         5.1757    9.6503    1.2356 C.ar      1 <0>        -0.1397
     32 C24         4.3725    9.1401    0.2342 C.ar      1 <0>        -0.0416
     33 O2          5.4044   10.5275    3.4352 O.3       1 <0>        -0.3055
     34 C25         4.7603   10.8923    4.6575 C.3       1 <0>         0.0226
     35 C26         1.9406    6.4136   -1.9540 C.3       1 <0>        -0.0040
     36 C27         3.1575    6.6661   -2.8464 C.3       1 <0>         0.0445
     37 H3          3.4147    7.7253   -2.8453 H         1 <0>         0.0926
     38 C28         2.8780    6.1820   -4.2865 C.3       1 <0>        -0.1434
     39 C29         4.2286    5.5949   -4.7540 C.3       1 <0>        -0.1562
     40 C30         5.1643    5.7938   -3.5410 C.3       1 <0>         0.0464
     41 O3          4.2808    5.8755   -2.4003 O.3       1 <0>        -0.3644
     42 H4         -2.3016   -0.9798    1.4027 H         1 <0>         0.0578
     43 H5         -3.2249    0.5412    1.3544 H         1 <0>         0.0555
     44 H6         -3.9130   -0.9404    0.6476 H         1 <0>         0.0652
     45 H7         -3.0483    0.5698   -1.1188 H         1 <0>         0.0778
     46 H8         -2.1251   -0.9513   -1.0705 H         1 <0>         0.0796
     47 H9          0.1377   -1.0079   -0.2202 H         1 <0>         0.1419
     48 H10         2.2266    0.2275    0.1469 H         1 <0>         0.1435
     49 H11        -2.0736    2.6264   -0.3268 H         1 <0>         0.1411
     50 H12        -0.8879    4.8440   -0.0315 H         1 <0>         0.1574
     51 H13        -1.1147    5.5688    3.0080 H         1 <0>         0.0817
     52 H14        -2.3699    6.5072    2.1641 H         1 <0>         0.1068
     53 H15        -0.9254    5.9572    1.2813 H         1 <0>         0.0586
     54 H16        -0.5887    9.0496    4.2187 H         1 <0>         0.0798
     55 H17        -2.1732    8.3130    3.8795 H         1 <0>         0.0937
     56 H18        -0.9180    7.3747    4.7234 H         1 <0>         0.0796
     57 H19        -0.3612    8.3608    0.5999 H         1 <0>         0.0540
     58 H20        -1.9102    8.7734    1.3737 H         1 <0>         0.1101
     59 H21        -0.4224    9.6266    1.8499 H         1 <0>         0.0863
     60 H22         2.4975    8.7999   -1.6213 H         1 <0>         0.1429
     61 H23         1.1114    8.7811   -0.5048 H         1 <0>         0.1289
     62 H24         1.3877    9.2780    1.8022 H         1 <0>         0.1215
     63 H25         2.8134   10.1770    3.5961 H         1 <0>         0.1363
     64 H26         6.2382    9.7576    1.0743 H         1 <0>         0.1431
     65 H27         4.8075    8.8483   -0.7103 H         1 <0>         0.1344
     66 H28         4.2749   10.0164    5.0880 H         1 <0>         0.0644
     67 H29         5.5013   11.2779    5.3578 H         1 <0>         0.1092
     68 H30         4.0133   11.6610    4.4593 H         1 <0>         0.0579
     69 H31         1.7697    5.3405   -1.8677 H         1 <0>         0.1351
     70 H32         1.0629    6.8870   -2.3940 H         1 <0>         0.1461
     71 H33         2.1062    5.4123   -4.2877 H         1 <0>         0.0850
     72 H34         2.5830    7.0184   -4.9201 H         1 <0>         0.0935
     73 H35         4.1245    4.5351   -4.9863 H         1 <0>         0.0838
     74 H36         4.6036    6.1415   -5.6193 H         1 <0>         0.0888
     75 H37         5.8390    4.9438   -3.4389 H         1 <0>         0.1040
     76 H38         5.7312    6.7188   -3.6467 H         1 <0>         0.0710
     77 N6          2.2118    6.9714   -0.6124 N.4       1 <0>        -0.3904
     78 H39         3.1558    6.6929   -0.3200 H         1 <0>         0.4575
@<TRIPOS>BOND
     1    1    2 1
     2    1   42 1
     3    1   43 1
     4    1   44 1
     5    2    3 1
     6    2   45 1
     7    2   46 1
     8    3    8 ar
     9    3    4 ar
    10    4    5 ar
    11    4   47 1
    12    5    6 ar
    13    5   48 1
    14    6   13 1
    15    6    7 ar
    16    7    8 ar
    17    7    9 1
    18    8   49 1
    19    9   10 2
    20    9   50 1
    21   10   11 1
    22   10   15 1
    23   11   12 2
    24   11   13 am
    25   13   14 1
    26   15   16 1
    27   15   17 1
    28   15   77 1
    29   17   21 1
    30   17   18 2
    31   18   19 1
    32   19   20 2
    33   20   21 1
    34   21   22 1
    35   22   23 1
    36   22   24 1
    37   22   25 1
    38   23   51 1
    39   23   52 1
    40   23   53 1
    41   24   54 1
    42   24   55 1
    43   24   56 1
    44   25   57 1
    45   25   58 1
    46   25   59 1
    47   26   27 1
    48   26   60 1
    49   26   61 1
    50   26   77 1
    51   27   32 ar
    52   27   28 ar
    53   28   29 ar
    54   28   62 1
    55   29   30 ar
    56   29   63 1
    57   30   31 ar
    58   30   33 1
    59   31   32 ar
    60   31   64 1
    61   32   65 1
    62   33   34 1
    63   34   66 1
    64   34   67 1
    65   34   68 1
    66   35   36 1
    67   35   69 1
    68   35   70 1
    69   35   77 1
    70   36   37 1
    71   36   41 1
    72   36   38 1
    73   38   39 1
    74   38   71 1
    75   38   72 1
    76   39   40 1
    77   39   73 1
    78   39   74 1
    79   40   41 1
    80   40   75 1
    81   40   76 1
    82   77   78 1
