@<TRIPOS>MOLECULE
ZINC40124907
   63    66     0     0     0
SMALL
USER_CHARGES

@<TRIPOS>ATOM
      1 C1         -1.2569    1.4783   -0.1747 C.3       1 <0>        -0.1486
      2 C2         -1.0208   -0.0244   -0.0107 C.3       1 <0>         0.0526
      3 O1         -2.2127   -0.6433    0.4778 O.3       1 <0>        -0.3076
      4 C3         -2.1608   -1.9813    0.7154 C.ar      1 <0>         0.0971
      5 C4         -0.9688   -2.6694    0.5546 C.ar      1 <0>        -0.1648
      6 C5         -0.9177   -4.0294    0.7970 C.ar      1 <0>        -0.0724
      7 C6         -2.0541   -4.7061    1.1997 C.ar      1 <0>        -0.0837
      8 C7         -3.2465   -4.0257    1.3616 C.ar      1 <0>        -0.1717
      9 C8         -3.3032   -2.6614    1.1263 C.ar      1 <0>         0.0933
     10 O2         -4.4740   -1.9895    1.2909 O.3       1 <0>        -0.3076
     11 C9         -5.6057   -2.7523    1.7146 C.3       1 <0>         0.0565
     12 C10        -6.8214   -1.8323    1.8439 C.3       1 <0>        -0.1120
     13 C11        -8.0331   -2.6490    2.2975 C.3       1 <0>        -0.0947
     14 C12        -9.2158   -1.7111    2.5470 C.3       1 <0>        -0.1457
     15 C13        -8.4036   -3.6589    1.2095 C.3       1 <0>        -0.1531
     16 C14         0.3795   -4.7761    0.6215 C.3       1 <0>         0.2662
     17 H1          1.1003   -4.1548    0.0901 H         1 <0>         0.0756
     18 C15         0.9336   -5.1787    1.9683 C.2       1 <0>        -0.5012
     19 C16         1.0014   -6.5302    1.9744 C.2       1 <0>         0.2682
     20 C17         0.5126   -7.0469    0.6800 C.2       1 <0>         0.5146
     21 O3          0.4492   -8.2220    0.3776 O.2       1 <0>        -0.5380
     22 N1          0.1479   -6.0237   -0.1161 N.am      1 <0>        -0.7203
     23 O4          1.4471   -7.2882    3.0034 O.3       1 <0>        -0.6504
     24 C18         1.3236   -4.2781    3.0586 C.2       1 <0>         0.5397
     25 O5          0.7030   -4.2861    4.1067 O.2       1 <0>        -0.4437
     26 C19         2.4626   -3.3665    2.8865 C.2       1 <0>         0.0070
     27 C20         2.9636   -2.5470    3.8509 C.2       1 <0>        -0.1640
     28 C21         4.0809   -1.8337    3.2355 C.ar      1 <0>        -0.0980
     29 C22         4.9890   -0.8704    3.6875 C.ar      1 <0>        -0.1036
     30 C23         5.9456   -0.3888    2.8400 C.ar      1 <0>        -0.1020
     31 C24         6.0241   -0.8480    1.5322 C.ar      1 <0>        -0.1950
     32 C25         5.1368   -1.7993    1.0640 C.ar      1 <0>         0.1447
     33 C26         4.1525   -2.3050    1.9124 C.ar      1 <0>         0.0333
     34 O6          3.1746   -3.2186    1.7503 O.3       1 <0>        -0.1534
     35 O7          5.2238   -2.2402   -0.2193 O.3       1 <0>        -0.3102
     36 C27         6.3252   -1.7645   -0.9955 C.3       1 <0>         0.0275
     37 H2         -0.3244    1.9631   -0.4638 H         1 <0>         0.0747
     38 H3         -2.0080    1.6460   -0.9466 H         1 <0>         0.0630
     39 H4         -1.6063    1.8964    0.7693 H         1 <0>         0.0655
     40 H5         -0.7553   -0.4579   -0.9749 H         1 <0>         0.0593
     41 H6         -0.2091   -0.1895    0.6978 H         1 <0>         0.0602
     42 H7         -0.0799   -2.1433    0.2394 H         1 <0>         0.1316
     43 H8         -2.0102   -5.7687    1.3878 H         1 <0>         0.1244
     44 H9         -4.1329   -4.5568    1.6759 H         1 <0>         0.1302
     45 H10        -5.8152   -3.5301    0.9802 H         1 <0>         0.0611
     46 H11        -5.3934   -3.2117    2.6800 H         1 <0>         0.0597
     47 H12        -6.6119   -1.0545    2.5782 H         1 <0>         0.0728
     48 H13        -7.0337   -1.3728    0.8785 H         1 <0>         0.0722
     49 H14        -7.7896   -3.1795    3.2180 H         1 <0>         0.0732
     50 H15        -9.4593   -1.1805    1.6264 H         1 <0>         0.0551
     51 H16       -10.0791   -2.2929    2.8701 H         1 <0>         0.0556
     52 H17        -8.9518   -0.9916    3.3220 H         1 <0>         0.0556
     53 H18        -8.6471   -3.1283    0.2890 H         1 <0>         0.0560
     54 H19        -7.5610   -4.3271    1.0318 H         1 <0>         0.0574
     55 H20        -9.2668   -4.2407    1.5327 H         1 <0>         0.0554
     56 H21        -0.2057   -6.0974   -1.0163 H         1 <0>         0.4076
     57 H22         2.6073   -2.4444    4.8653 H         1 <0>         0.1673
     58 H23         4.9335   -0.5084    4.7035 H         1 <0>         0.1291
     59 H24         6.6461    0.3552    3.1897 H         1 <0>         0.1295
     60 H25         6.7860   -0.4578    0.8737 H         1 <0>         0.1370
     61 H26         6.2967   -0.6757   -1.0376 H         1 <0>         0.0553
     62 H27         7.2596   -2.0859   -0.5354 H         1 <0>         0.0561
     63 H28         6.2595   -2.1690   -2.0055 H         1 <0>         0.1006
@<TRIPOS>BOND
     1    1    2 1
     2    1   37 1
     3    1   38 1
     4    1   39 1
     5    2    3 1
     6    2   40 1
     7    2   41 1
     8    3    4 1
     9    4    9 ar
    10    4    5 ar
    11    5    6 ar
    12    5   42 1
    13    6    7 ar
    14    6   16 1
    15    7    8 ar
    16    7   43 1
    17    8    9 ar
    18    8   44 1
    19    9   10 1
    20   10   11 1
    21   11   12 1
    22   11   45 1
    23   11   46 1
    24   12   13 1
    25   12   47 1
    26   12   48 1
    27   13   14 1
    28   13   15 1
    29   13   49 1
    30   14   50 1
    31   14   51 1
    32   14   52 1
    33   15   53 1
    34   15   54 1
    35   15   55 1
    36   16   17 1
    37   16   22 1
    38   16   18 1
    39   18   19 2
    40   18   24 1
    41   19   20 1
    42   19   23 1
    43   20   21 2
    44   20   22 am
    45   22   56 1
    46   24   25 2
    47   24   26 1
    48   26   34 1
    49   26   27 2
    50   27   28 1
    51   27   57 1
    52   28   33 ar
    53   28   29 ar
    54   29   30 ar
    55   29   58 1
    56   30   31 ar
    57   30   59 1
    58   31   32 ar
    59   31   60 1
    60   32   33 ar
    61   32   35 1
    62   33   34 1
    63   35   36 1
    64   36   61 1
    65   36   62 1
    66   36   63 1
