@<TRIPOS>MOLECULE
ZINC06760604
   39    41     0     0     0
SMALL
USER_CHARGES
2-(trimethyl-dioxo-BLAHyl)acetamide
@<TRIPOS>ATOM
      1 C1          2.1382    1.4120   -1.0892 C.3       1 <0>        -0.1841
      2 C2          1.2714    2.0454    0.0009 C.3       1 <0>         0.1160
      3 C3          1.9319    1.8330    1.3734 C.3       1 <0>        -0.0711
      4 C4          1.7408    0.3970    1.7527 C.2       1 <0>        -0.1265
      5 C5          0.8762   -0.4811    1.1600 C.2       1 <0>        -0.2086
      6 C6          0.8467   -1.7794    1.6583 C.2       1 <0>         0.2220
      7 C7          1.7174   -2.0473    2.7275 C.2       1 <0>        -0.3589
      8 S1          2.5293   -0.5043    2.9914 S.3       1 <0>         0.3044
      9 C8          1.8175   -3.2955    3.3492 C.2       1 <0>         0.6128
     10 O1          2.5817   -3.4993    4.2756 O.2       1 <0>        -0.4954
     11 N1          1.0052   -4.2680    2.8524 N.am      1 <0>        -0.5524
     12 C9          0.1679   -4.0304    1.8323 C.2       1 <0>         0.7096
     13 O2         -0.5261   -4.9505    1.4444 O.2       1 <0>        -0.5407
     14 N2          0.0418   -2.8425    1.2062 N.am      1 <0>        -0.5090
     15 C10        -0.8984   -2.6647    0.0968 C.3       1 <0>         0.0865
     16 C11        -2.2354   -2.2263    0.6368 C.2       1 <0>         0.4985
     17 O3         -2.3878   -2.0771    1.8307 O.2       1 <0>        -0.5198
     18 N3         -3.2616   -2.0001   -0.2071 N.am      1 <0>        -0.8475
     19 C12         1.0464   -5.6065    3.4466 C.3       1 <0>         0.0817
     20 C13         0.0021   -0.0041    0.0020 C.3       1 <0>         0.1218
     21 O4         -0.0173    1.4249    0.0099 O.3       1 <0>        -0.3599
     22 C14         1.1174    3.5437   -0.2679 C.3       1 <0>        -0.1394
     23 H1          1.6618    1.5523   -2.0595 H         1 <0>         0.0713
     24 H2          3.1196    1.8863   -1.0943 H         1 <0>         0.0752
     25 H3          2.2507    0.3462   -0.8904 H         1 <0>         0.0624
     26 H4          1.4591    2.4771    2.1147 H         1 <0>         0.1073
     27 H5          2.9962    2.0603    1.3114 H         1 <0>         0.1053
     28 H6         -0.5157   -1.9059   -0.5857 H         1 <0>         0.1291
     29 H7         -1.0137   -3.6082   -0.4365 H         1 <0>         0.1375
     30 H8         -3.1397   -2.1194   -1.1620 H         1 <0>         0.4048
     31 H9         -4.1221   -1.7180    0.1404 H         1 <0>         0.4096
     32 H10         1.7754   -5.6221    4.2568 H         1 <0>         0.1033
     33 H11         0.0616   -5.8602    3.8390 H         1 <0>         0.0810
     34 H12         1.3328   -6.3330    2.6861 H         1 <0>         0.0814
     35 H13        -1.0115   -0.3855    0.1259 H         1 <0>         0.1007
     36 H14         0.4155   -0.3603   -0.9415 H         1 <0>         0.0738
     37 H15         0.5048    3.9921    0.5143 H         1 <0>         0.0689
     38 H16         2.1004    4.0146   -0.2743 H         1 <0>         0.0777
     39 H17         0.6372    3.6919   -1.2352 H         1 <0>         0.0706
@<TRIPOS>BOND
     1    1    2 1
     2    1   23 1
     3    1   24 1
     4    1   25 1
     5    2   21 1
     6    2    3 1
     7    2   22 1
     8    3    4 1
     9    3   26 1
    10    3   27 1
    11    4    8 1
    12    4    5 2
    13    5    6 1
    14    5   20 1
    15    6   14 1
    16    6    7 2
    17    7    8 1
    18    7    9 1
    19    9   10 2
    20    9   11 am
    21   11   12 am
    22   11   19 1
    23   12   13 2
    24   12   14 am
    25   14   15 1
    26   15   16 1
    27   15   28 1
    28   15   29 1
    29   16   17 2
    30   16   18 am
    31   18   30 1
    32   18   31 1
    33   19   32 1
    34   19   33 1
    35   19   34 1
    36   20   21 1
    37   20   35 1
    38   20   36 1
    39   22   37 1
    40   22   38 1
    41   22   39 1
