@<TRIPOS>MOLECULE
ZINC39362839
   53    55     0     0     0
SMALL
USER_CHARGES

@<TRIPOS>ATOM
      1 C1         -0.0376    1.2687    2.4310 C.3       1 <0>        -0.1541
      2 C2         -0.0145   -0.2289    2.1187 C.3       1 <0>         0.0605
      3 O1         -1.3540   -0.7080    1.9836 O.3       1 <0>        -0.3453
      4 C3         -1.5097   -2.0123    1.7070 C.2       1 <0>         0.4603
      5 O2         -0.5408   -2.7236    1.5838 O.2       1 <0>        -0.5025
      6 C4         -2.8929   -2.5894    1.5502 C.3       1 <0>         0.1282
      7 N1         -2.7942   -4.0207    1.2538 N.am      1 <0>        -0.7179
      8 C5         -3.9129   -4.7500    1.0722 C.2       1 <0>         0.5421
      9 O3         -5.0014   -4.2214    1.1541 O.2       1 <0>        -0.5154
     10 C6         -3.8114   -6.2223    0.7673 C.3       1 <0>        -0.1497
     11 S1         -5.4764   -6.9170    0.5786 S.3       1 <0>         0.0773
     12 C7         -5.1906   -8.6205    0.2302 C.2       1 <0>         0.2626
     13 N2         -4.0193   -9.1562    0.1547 N.2       1 <0>        -0.2960
     14 N3         -4.0984  -10.5238   -0.1347 N.pl3     1 <0>        -0.6627
     15 C8         -5.5335  -10.8375   -0.2456 C.3       1 <0>         0.3786
     16 H1         -5.8242  -11.5697    0.5077 H         1 <0>         0.0861
     17 N4         -6.1983   -9.5485    0.0100 N.pl3     1 <0>        -0.5791
     18 C9         -7.5757   -9.3066    0.0249 C.ar      1 <0>         0.1460
     19 C10        -8.3695   -9.8663    1.0177 C.ar      1 <0>        -0.0841
     20 C11        -9.7294   -9.6257    1.0307 C.ar      1 <0>        -0.1397
     21 C12       -10.3017   -8.8273    0.0547 C.ar      1 <0>         0.1078
     22 C13        -9.5123   -8.2682   -0.9361 C.ar      1 <0>        -0.1382
     23 C14        -8.1511   -8.5015   -0.9498 C.ar      1 <0>        -0.0836
     24 F1        -11.6323   -8.5940    0.0688 F         1 <0>        -0.1339
     25 C15        -5.8636  -11.3523   -1.6481 C.3       1 <0>        -0.1225
     26 C16        -5.1912  -12.6833   -1.8658 C.2       1 <0>         0.2044
     27 N5         -3.8915  -12.7355   -2.2907 N.am      1 <0>        -0.6362
     28 C17        -3.2819  -13.9186   -2.4876 C.2       1 <0>         0.7009
     29 O4         -2.1264  -13.9420   -2.8653 O.2       1 <0>        -0.5347
     30 N6         -3.9330  -15.0767   -2.2719 N.am      1 <0>        -0.6587
     31 C18        -5.2146  -15.0680   -1.8529 C.2       1 <0>         0.5505
     32 O5         -5.8044  -16.1154   -1.6576 O.2       1 <0>        -0.5079
     33 C19        -5.8665  -13.8299   -1.6373 C.2       1 <0>        -0.2833
     34 H2          0.9841    1.6342    2.5341 H         1 <0>         0.0828
     35 H3         -0.5339    1.8014    1.6197 H         1 <0>         0.0688
     36 H4         -0.5795    1.4375    3.3615 H         1 <0>         0.0688
     37 H5          0.5274   -0.3977    1.1882 H         1 <0>         0.0712
     38 H6          0.4818   -0.7616    2.9300 H         1 <0>         0.0712
     39 H7         -3.4527   -2.4476    2.4747 H         1 <0>         0.1188
     40 H8         -3.4071   -2.0837    0.7329 H         1 <0>         0.1188
     41 H9         -1.9236   -4.4435    1.1883 H         1 <0>         0.4162
     42 H10        -3.2515   -6.3642   -0.1571 H         1 <0>         0.1279
     43 H11        -3.2972   -6.7280    1.5846 H         1 <0>         0.1280
     44 H12        -3.3573  -11.1406   -0.2413 H         1 <0>         0.4436
     45 H13        -7.9237  -10.4896    1.7788 H         1 <0>         0.1373
     46 H14       -10.3470  -10.0607    1.8025 H         1 <0>         0.1436
     47 H15        -9.9608   -7.6459   -1.6964 H         1 <0>         0.1440
     48 H16        -7.5351   -8.0615   -1.7202 H         1 <0>         0.1389
     49 H17        -6.9427  -11.4699   -1.7473 H         1 <0>         0.1179
     50 H18        -5.5061  -10.6388   -2.3905 H         1 <0>         0.1006
     51 H19        -3.4785  -15.9210   -2.4188 H         1 <0>         0.4334
     52 H20        -6.8914  -13.8030   -1.2979 H         1 <0>         0.1734
     53 H21        -3.4052  -11.9118   -2.4516 H         1 <0>         0.4351
@<TRIPOS>BOND
     1    1    2 1
     2    1   34 1
     3    1   35 1
     4    1   36 1
     5    2    3 1
     6    2   37 1
     7    2   38 1
     8    3    4 1
     9    4    5 2
    10    4    6 1
    11    6    7 1
    12    6   39 1
    13    6   40 1
    14    7    8 am
    15    7   41 1
    16    8    9 2
    17    8   10 1
    18   10   11 1
    19   10   42 1
    20   10   43 1
    21   11   12 1
    22   12   17 1
    23   12   13 2
    24   13   14 1
    25   14   15 1
    26   14   44 1
    27   15   16 1
    28   15   17 1
    29   15   25 1
    30   17   18 1
    31   18   23 ar
    32   18   19 ar
    33   19   20 ar
    34   19   45 1
    35   20   21 ar
    36   20   46 1
    37   21   22 ar
    38   21   24 1
    39   22   23 ar
    40   22   47 1
    41   23   48 1
    42   25   49 1
    43   25   50 1
    44   25   26 1
    45   26   33 2
    46   26   27 1
    47   27   28 am
    48   27   53 1
    49   28   29 2
    50   28   30 am
    51   30   51 1
    52   30   31 am
    53   31   32 2
    54   31   33 1
    55   33   52 1
