@<TRIPOS>MOLECULE
ZINC67606035
   55    58     0     0     0
SMALL
USER_CHARGES

@<TRIPOS>ATOM
      1 C1         -0.0187    1.5258    0.0104 C.3       1 <0>        -0.1379
      2 C2          0.0021   -0.0041    0.0020 C.3       1 <0>        -0.1251
      3 C3         -1.4333   -0.5336    0.0129 C.3       1 <0>         0.2412
      4 H1         -1.9701   -0.1109    0.8621 H         1 <0>         0.1090
      5 C4         -1.4136   -2.0361    0.1285 C.2       1 <0>         0.2521
      6 N1         -0.7697   -2.8367   -0.6699 N.2       1 <0>        -0.4688
      7 C5         -0.9657   -4.1230   -0.2819 C.ar      1 <0>         0.0362
      8 C6         -0.5213   -5.3550   -0.7693 C.ar      1 <0>        -0.0562
      9 C7         -0.9000   -6.5102   -0.1463 C.ar      1 <0>        -0.1228
     10 C8         -1.7246   -6.4752    0.9694 C.ar      1 <0>        -0.0533
     11 C9         -2.1751   -5.2714    1.4677 C.ar      1 <0>        -0.1192
     12 C10        -1.8002   -4.0871    0.8479 C.ar      1 <0>         0.0614
     13 N2         -2.0616   -2.7526    1.0862 N.pl3     1 <0>        -0.5904
     14 C11        -2.1308   -7.7620    1.6404 C.3       1 <0>        -0.1181
     15 N3         -2.1054   -0.1483   -1.2305 N.pl3     1 <0>        -0.6876
     16 C12        -2.7061    1.0954   -1.3365 C.ar      1 <0>         0.5061
     17 C13        -3.3554    1.4716   -2.5161 C.ar      1 <0>        -0.3288
     18 C14        -3.9414    2.7139   -2.5819 C.ar      1 <0>         0.2121
     19 N4         -3.8695    3.5177   -1.5260 N.ar      1 <0>        -0.5905
     20 C15        -3.2485    3.1381   -0.4205 C.ar      1 <0>         0.6180
     21 N5         -2.6787    1.9467   -0.3165 N.ar      1 <0>        -0.6009
     22 N6         -3.1978    4.0061    0.6563 N.pl3     1 <0>        -0.5777
     23 C16        -3.8266    5.3260    0.5634 C.3       1 <0>         0.0963
     24 C17        -2.5152    3.6049    1.8889 C.3       1 <0>         0.0943
     25 C18        -4.6646    3.1839   -3.8145 C.3       1 <0>         0.0548
     26 N7         -4.2720    2.3823   -4.9778 N.4       1 <0>        -0.5014
     27 C19        -4.4718    0.9578   -4.6711 C.3       1 <0>        -0.0014
     28 C20        -3.3955    0.5158   -3.6774 C.3       1 <0>        -0.0823
     29 H2          1.0039    1.9031    0.0027 H         1 <0>         0.0531
     30 H3         -0.5459    1.8868   -0.8726 H         1 <0>         0.0474
     31 H4         -0.5289    1.8773    0.9072 H         1 <0>         0.0643
     32 H5          0.5123   -0.3556   -0.8948 H         1 <0>         0.0794
     33 H6          0.5293   -0.3651    0.8851 H         1 <0>         0.0781
     34 H7          0.1202   -5.3938   -1.6373 H         1 <0>         0.1324
     35 H8         -0.5544   -7.4603   -0.5260 H         1 <0>         0.1344
     36 H9         -2.8164   -5.2498    2.3364 H         1 <0>         0.1258
     37 H10        -1.4027   -8.0155    2.4109 H         1 <0>         0.0771
     38 H11        -3.1138   -7.6400    2.0954 H         1 <0>         0.0688
     39 H12        -2.1697   -8.5612    0.9002 H         1 <0>         0.0733
     40 H13        -2.1298   -0.7641   -1.9796 H         1 <0>         0.4186
     41 H14        -4.8615    5.2598    0.8990 H         1 <0>         0.0589
     42 H15        -3.2848    6.0317    1.1932 H         1 <0>         0.0769
     43 H16        -3.8013    5.6685   -0.4711 H         1 <0>         0.0820
     44 H17        -1.4670    3.8990    1.8360 H         1 <0>         0.0610
     45 H18        -2.9871    4.0939    2.7412 H         1 <0>         0.0769
     46 H19        -2.5837    2.5235    2.0068 H         1 <0>         0.0818
     47 H20        -5.7393    3.0895   -3.6589 H         1 <0>         0.1530
     48 H21        -4.4189    4.2297   -3.9988 H         1 <0>         0.1559
     49 H22        -4.8394    2.6393   -5.7715 H         1 <0>         0.4400
     50 H23        -5.4582    0.8134   -4.2304 H         1 <0>         0.1345
     51 H24        -4.3879    0.3714   -5.5861 H         1 <0>         0.1425
     52 H25        -2.4251    0.5071   -4.1737 H         1 <0>         0.0975
     53 H26        -3.6259   -0.4860   -3.3149 H         1 <0>         0.1102
     54 H27        -3.2995    2.5486   -5.1893 H         1 <0>         0.4333
     55 H28        -2.6078   -2.3927    1.8025 H         1 <0>         0.4239
@<TRIPOS>BOND
     1    1    2 1
     2    1   29 1
     3    1   30 1
     4    1   31 1
     5    2    3 1
     6    2   32 1
     7    2   33 1
     8    3    4 1
     9    3    5 1
    10    3   15 1
    11    5   13 1
    12    5    6 2
    13    6    7 1
    14    7   12 ar
    15    7    8 ar
    16    8    9 ar
    17    8   34 1
    18    9   10 ar
    19    9   35 1
    20   10   11 ar
    21   10   14 1
    22   11   12 ar
    23   11   36 1
    24   12   13 1
    25   13   55 1
    26   14   37 1
    27   14   38 1
    28   14   39 1
    29   15   16 1
    30   15   40 1
    31   16   21 ar
    32   16   17 ar
    33   17   28 1
    34   17   18 ar
    35   18   19 ar
    36   18   25 1
    37   19   20 ar
    38   20   21 ar
    39   20   22 1
    40   22   23 1
    41   22   24 1
    42   23   41 1
    43   23   42 1
    44   23   43 1
    45   24   44 1
    46   24   45 1
    47   24   46 1
    48   25   26 1
    49   25   47 1
    50   25   48 1
    51   26   27 1
    52   26   49 1
    53   26   54 1
    54   27   28 1
    55   27   50 1
    56   27   51 1
    57   28   52 1
    58   28   53 1
