@<TRIPOS>MOLECULE
ZINC66122213
   55    57     0     0     0
SMALL
USER_CHARGES

@<TRIPOS>ATOM
      1 C1          0.0106    1.5123   -0.0059 C.3       1 <0>        -0.1461
      2 C2          0.0163   -0.0177   -0.0133 C.3       1 <0>        -0.1006
      3 C3          0.7639   -0.5309    1.2191 C.3       1 <0>        -0.1332
      4 C4         -1.4240   -0.5332    0.0126 C.3       1 <0>         0.2687
      5 H1         -1.9216   -0.1760    0.9142 H         1 <0>         0.1018
      6 C5         -2.1603   -0.0278   -1.2012 C.2       1 <0>         0.1317
      7 N1         -2.0298   -0.4707   -2.4251 N.2       1 <0>        -0.2374
      8 N2         -2.8051    0.1795   -3.2201 N.2       1 <0>        -0.2838
      9 C6         -3.4816    1.0857   -2.5334 C.2       1 <0>         0.1969
     10 N3         -3.0866    0.9686   -1.2232 N.pl3     1 <0>        -0.3807
     11 C7         -3.6220    1.7778   -0.2648 C.2       1 <0>         0.0613
     12 C8         -4.5495    2.7030   -0.5891 C.2       1 <0>        -0.1301
     13 C9         -4.9763    2.8447   -1.9207 C.2       1 <0>        -0.0848
     14 C10        -4.4450    2.0496   -2.8880 C.2       1 <0>        -0.0785
     15 N4         -1.4186   -1.9982    0.0056 N.am      1 <0>        -0.7362
     16 C11        -1.2915   -2.6772    1.1628 C.2       1 <0>         0.7134
     17 O1         -1.1022   -2.0761    2.2027 O.2       1 <0>        -0.5825
     18 N5         -1.3743   -4.0224    1.1675 N.am      1 <0>        -0.6253
     19 C12        -1.4816   -4.7701   -0.0927 C.3       1 <0>         0.1081
     20 C13        -0.3779   -5.8318   -0.1316 C.3       1 <0>        -0.1345
     21 C14        -0.4674   -6.7012    1.1247 C.3       1 <0>        -0.1150
     22 C15        -0.2567   -5.8306    2.3657 C.3       1 <0>        -0.1031
     23 H2          0.7158   -5.3420    2.3065 H         1 <0>         0.0772
     24 C16        -1.3529   -4.7693    2.4325 C.3       1 <0>         0.1315
     25 C17        -0.3129   -6.7061    3.6192 C.3       1 <0>        -0.0966
     26 C18         0.0209   -5.8587    4.8485 C.3       1 <0>        -0.1461
     27 C19        -0.0345   -6.7210    6.0832 C.2       1 <0>         0.5151
     28 O2         -0.3135   -7.8975    5.9891 O.2       1 <0>        -0.5441
     29 N6          0.2261   -6.1848    7.2919 N.am      1 <0>        -0.8589
     30 H3          1.0367    1.8795   -0.0244 H         1 <0>         0.0667
     31 H4         -0.5220    1.8778   -0.8839 H         1 <0>         0.0462
     32 H5         -0.4870    1.8694    0.8957 H         1 <0>         0.0574
     33 H6          0.5139   -0.3749   -0.9149 H         1 <0>         0.0811
     34 H7          0.2663   -0.1737    2.1207 H         1 <0>         0.0655
     35 H8          0.7679   -1.6208    1.2138 H         1 <0>         0.0592
     36 H9          1.7900   -0.1636    1.2007 H         1 <0>         0.0498
     37 H10        -3.3016    1.6773    0.7616 H         1 <0>         0.1701
     38 H11        -4.9664    3.3377    0.1789 H         1 <0>         0.1592
     39 H12        -5.7188    3.5864   -2.1759 H         1 <0>         0.1510
     40 H13        -4.7668    2.1485   -3.9142 H         1 <0>         0.1597
     41 H14        -1.5064   -2.4795   -0.8320 H         1 <0>         0.4049
     42 H15        -2.4565   -5.2544   -0.1484 H         1 <0>         0.0718
     43 H16        -1.3617   -4.0875   -0.9340 H         1 <0>         0.0776
     44 H17        -0.5047   -6.4562   -1.0159 H         1 <0>         0.0786
     45 H18         0.5958   -5.3432   -0.1673 H         1 <0>         0.0687
     46 H19        -1.4503   -7.1700    1.1726 H         1 <0>         0.0670
     47 H20         0.3014   -7.4730    1.0878 H         1 <0>         0.0695
     48 H21        -1.1482   -4.0862    3.2568 H         1 <0>         0.0959
     49 H22        -2.3171   -5.2535    2.5873 H         1 <0>         0.0663
     50 H23        -1.3142   -7.1232    3.7264 H         1 <0>         0.0736
     51 H24         0.4105   -7.5165    3.5291 H         1 <0>         0.0760
     52 H25         1.0222   -5.4416    4.7412 H         1 <0>         0.0957
     53 H26        -0.7025   -5.0483    4.9385 H         1 <0>         0.0969
     54 H27         0.4492   -5.2438    7.3671 H         1 <0>         0.4023
     55 H28         0.1904   -6.7398    8.0866 H         1 <0>         0.4011
@<TRIPOS>BOND
     1    1    2 1
     2    1   30 1
     3    1   31 1
     4    1   32 1
     5    2    3 1
     6    2    4 1
     7    2   33 1
     8    3   34 1
     9    3   35 1
    10    3   36 1
    11    4    5 1
    12    4    6 1
    13    4   15 1
    14    6   10 1
    15    6    7 2
    16    7    8 1
    17    8    9 2
    18    9   14 1
    19    9   10 1
    20   10   11 1
    21   11   12 2
    22   11   37 1
    23   12   13 1
    24   12   38 1
    25   13   14 2
    26   13   39 1
    27   14   40 1
    28   15   16 am
    29   15   41 1
    30   16   17 2
    31   16   18 am
    32   18   24 1
    33   18   19 1
    34   19   20 1
    35   19   42 1
    36   19   43 1
    37   20   21 1
    38   20   44 1
    39   20   45 1
    40   21   22 1
    41   21   46 1
    42   21   47 1
    43   22   23 1
    44   22   24 1
    45   22   25 1
    46   24   48 1
    47   24   49 1
    48   25   26 1
    49   25   50 1
    50   25   51 1
    51   26   27 1
    52   26   52 1
    53   26   53 1
    54   27   28 2
    55   27   29 am
    56   29   54 1
    57   29   55 1
