@<TRIPOS>MOLECULE
ZINC39481242
   63    66     0     0     0
SMALL
USER_CHARGES

@<TRIPOS>ATOM
      1 C1         -1.2611    2.8098   -0.2336 C.3       1 <0>        -0.1495
      2 C2         -0.8973    1.3279   -0.3463 C.3       1 <0>        -0.0869
      3 C3         -2.1465    0.4935   -0.2262 C.ar      1 <0>        -0.0854
      4 C4         -2.5710    0.0631    1.0172 C.ar      1 <0>        -0.0642
      5 C5         -3.7162   -0.7027    1.1344 C.ar      1 <0>        -0.1627
      6 C6         -4.4429   -1.0408    0.0028 C.ar      1 <0>         0.1699
      7 C7         -4.0149   -0.6063   -1.2515 C.ar      1 <0>         0.1204
      8 C8         -2.8679    0.1654   -1.3592 C.ar      1 <0>        -0.0873
      9 N1         -4.7437   -0.9446   -2.3981 N.pl3     1 <0>        -0.6583
     10 C9         -5.8224   -0.0751   -2.8927 C.3       1 <0>         0.1110
     11 C10        -5.5951    0.1790   -4.3865 C.3       1 <0>        -0.0235
     12 N2         -5.4820   -1.1056   -5.0889 N.4       1 <0>        -0.4785
     13 C11        -4.2896   -1.8260   -4.6248 C.3       1 <0>        -0.5552
     14 H1         -3.4105   -1.1946   -4.7535 H         1 <0>         0.1995
     15 C12        -4.4485   -2.1766   -3.1459 C.3       1 <0>         0.1308
     16 S1         -4.0881   -3.3479   -5.5911 S.o2      1 <0>         2.5844
     17 O1         -2.8468   -3.9650   -5.2791 O.2       1 <0>        -0.8815
     18 O2         -5.2942   -4.0992   -5.5782 O.2       1 <0>        -0.8763
     19 O3         -3.9378   -2.8796   -7.0315 O.3       1 <0>        -0.6453
     20 C13        -2.7231   -2.3391   -7.3131 C.ar      1 <0>         0.0310
     21 C14        -2.5112   -0.9788   -7.1417 C.ar      1 <0>        -0.1384
     22 C15        -1.2754   -0.4319   -7.4282 C.ar      1 <0>        -0.0940
     23 C16        -0.2503   -1.2390   -7.8858 C.ar      1 <0>        -0.0801
     24 C17        -0.4590   -2.5949   -8.0579 C.ar      1 <0>        -0.0896
     25 C18        -1.6911   -3.1477   -7.7669 C.ar      1 <0>        -0.0739
     26 N3         -5.6026   -1.8167    0.1190 N.pl3     1 <0>        -1.0537
     27 S2         -6.5932   -1.6334    1.4334 S.o2      1 <0>         2.6898
     28 O4         -6.7690   -0.2354    1.6177 O.2       1 <0>        -0.9388
     29 O5         -7.6871   -2.5205    1.2444 O.2       1 <0>        -0.9280
     30 C19        -5.7070   -2.2191    2.8392 C.ar      1 <0>        -0.7125
     31 C20        -5.3835   -1.3505    3.8638 C.ar      1 <0>        -0.0125
     32 C21        -4.6878   -1.8093    4.9668 C.ar      1 <0>        -0.1417
     33 C22        -4.3143   -3.1383    5.0480 C.ar      1 <0>        -0.0394
     34 C23        -4.6357   -4.0108    4.0266 C.ar      1 <0>        -0.1597
     35 C24        -5.3385   -3.5539    2.9209 C.ar      1 <0>         0.2062
     36 O6         -5.6608   -4.4116    1.9172 O.3       1 <0>        -0.4869
     37 H2         -0.3576    3.4133   -0.3204 H         1 <0>         0.0632
     38 H3         -1.9538    3.0756   -1.0321 H         1 <0>         0.0534
     39 H4         -1.7310    2.9961    0.7321 H         1 <0>         0.0596
     40 H5         -0.4274    1.1416   -1.3119 H         1 <0>         0.0730
     41 H6         -0.2047    1.0621    0.4523 H         1 <0>         0.0788
     42 H7         -2.0062    0.3256    1.8996 H         1 <0>         0.1372
     43 H8         -4.0446   -1.0378    2.1071 H         1 <0>         0.1385
     44 H9         -2.5359    0.5070   -2.3285 H         1 <0>         0.1273
     45 H10        -6.7846   -0.5662   -2.7469 H         1 <0>         0.0880
     46 H11        -5.8058    0.8719   -2.3534 H         1 <0>         0.1287
     47 H12        -6.4361    0.7418   -4.7915 H         1 <0>         0.1530
     48 H13        -4.6764    0.7496   -4.5224 H         1 <0>         0.1385
     49 H14        -6.3030   -1.6621   -4.9038 H         1 <0>         0.4387
     50 H15        -3.5240   -2.6182   -2.7740 H         1 <0>         0.1353
     51 H16        -5.2696   -2.8834   -3.0262 H         1 <0>         0.0980
     52 H17        -3.3119   -0.3479   -6.7850 H         1 <0>         0.1247
     53 H18        -1.1100    0.6270   -7.2950 H         1 <0>         0.1475
     54 H19         0.7151   -0.8095   -8.1096 H         1 <0>         0.1471
     55 H20         0.3433   -3.2232   -8.4158 H         1 <0>         0.1515
     56 H21        -1.8524   -4.2076   -7.8972 H         1 <0>         0.1493
     57 H22        -5.8259   -2.4615   -0.5704 H         1 <0>         0.4238
     58 H23        -5.6740   -0.3121    3.8028 H         1 <0>         0.1511
     59 H24        -4.4352   -1.1285    5.7663 H         1 <0>         0.1427
     60 H25        -3.7706   -3.4942    5.9106 H         1 <0>         0.1421
     61 H26        -4.3438   -5.0486    4.0905 H         1 <0>         0.1437
     62 H27        -4.9835   -4.4864    1.2311 H         1 <0>         0.3956
     63 H28        -5.4080   -0.9395   -6.0813 H         1 <0>         0.4307
@<TRIPOS>BOND
     1    1    2 1
     2    1   37 1
     3    1   38 1
     4    1   39 1
     5    2    3 1
     6    2   40 1
     7    2   41 1
     8    3    8 ar
     9    3    4 ar
    10    4    5 ar
    11    4   42 1
    12    5    6 ar
    13    5   43 1
    14    6    7 ar
    15    6   26 1
    16    7    8 ar
    17    7    9 1
    18    8   44 1
    19    9   15 1
    20    9   10 1
    21   10   11 1
    22   10   45 1
    23   10   46 1
    24   11   12 1
    25   11   47 1
    26   11   48 1
    27   12   13 1
    28   12   49 1
    29   12   63 1
    30   13   14 1
    31   13   15 1
    32   13   16 1
    33   15   50 1
    34   15   51 1
    35   16   17 2
    36   16   18 2
    37   16   19 1
    38   19   20 1
    39   20   25 ar
    40   20   21 ar
    41   21   22 ar
    42   21   52 1
    43   22   23 ar
    44   22   53 1
    45   23   24 ar
    46   23   54 1
    47   24   25 ar
    48   24   55 1
    49   25   56 1
    50   26   27 1
    51   26   57 1
    52   27   28 2
    53   27   29 2
    54   27   30 1
    55   30   35 ar
    56   30   31 ar
    57   31   32 ar
    58   31   58 1
    59   32   33 ar
    60   32   59 1
    61   33   34 ar
    62   33   60 1
    63   34   35 ar
    64   34   61 1
    65   35   36 1
    66   36   62 1
