@<TRIPOS>MOLECULE
ZINC02734806
   53    55     0     0     0
SMALL
USER_CHARGES
methyl 2-amino-4-(3,4-dimethoxyphenyl)-7,7-dimethyl-5-oxo-6,8-dihydro-4H-chromene-3-carboxylate
@<TRIPOS>ATOM
      1 C1          0.1756    1.4663   -0.0862 C.3       1 <0>        -0.1416
      2 C2          0.1363   -0.0631   -0.0919 C.3       1 <0>        -0.0560
      3 C3         -1.3146   -0.5404   -0.0056 C.3       1 <0>        -0.0723
      4 C4         -1.3570   -2.0501   -0.0519 C.2       1 <0>         0.1692
      5 C5         -0.4291   -2.7416   -0.7378 C.2       1 <0>        -0.2597
      6 C6         -0.4749   -4.2498   -0.7870 C.3       1 <0>         0.1016
      7 H1          0.5356   -4.6457   -0.6863 H         1 <0>         0.0957
      8 C7         -1.3306   -4.7767    0.3310 C.2       1 <0>        -0.3555
      9 C8         -2.2129   -3.9600    0.9633 C.2       1 <0>         0.4182
     10 O1         -2.3501   -2.6738    0.6096 O.3       1 <0>        -0.2419
     11 N1         -2.9778   -4.4603    1.9827 N.pl3     1 <0>        -0.8317
     12 C9         -1.2170   -6.1194    0.7239 C.2       1 <0>         0.5405
     13 O2         -0.2857   -6.4720    1.4252 O.2       1 <0>        -0.5002
     14 O3         -2.1404   -7.0203    0.3243 O.3       1 <0>        -0.3478
     15 C10        -1.9624   -8.3692    0.7614 C.3       1 <0>         0.0287
     16 C11        -1.0547   -4.6894   -2.1067 C.ar      1 <0>        -0.0688
     17 C12        -2.3336   -4.3022   -2.4615 C.ar      1 <0>        -0.0982
     18 C13        -2.8699   -4.7029   -3.6710 C.ar      1 <0>        -0.1712
     19 C14        -2.1254   -5.4944   -4.5308 C.ar      1 <0>         0.0986
     20 C15        -0.8382   -5.8841   -4.1737 C.ar      1 <0>         0.1008
     21 C16        -0.3045   -5.4743   -2.9624 C.ar      1 <0>        -0.1513
     22 O4         -0.1037   -6.6613   -5.0139 O.3       1 <0>        -0.3066
     23 C17         1.2095   -7.0228   -4.5817 C.3       1 <0>         0.0256
     24 O5         -2.6517   -5.8898   -5.7208 O.3       1 <0>        -0.3070
     25 C18        -3.9787   -5.4524   -6.0206 C.3       1 <0>         0.0268
     26 C19         0.6122   -2.0876   -1.4250 C.2       1 <0>         0.4051
     27 O6          1.4190   -2.7454   -2.0510 O.2       1 <0>        -0.4486
     28 C20         0.7482   -0.5892   -1.3948 C.3       1 <0>        -0.1512
     29 C21         0.9268   -0.6023    1.1019 C.3       1 <0>        -0.1556
     30 H2          1.2099    1.8034   -0.1551 H         1 <0>         0.0674
     31 H3         -0.3882    1.8475   -0.9376 H         1 <0>         0.0632
     32 H4         -0.2667    1.8377    0.8382 H         1 <0>         0.0649
     33 H5         -1.7555   -0.1937    0.9290 H         1 <0>         0.1021
     34 H6         -1.8801   -0.1357   -0.8449 H         1 <0>         0.1088
     35 H7         -2.8235   -5.3611    2.3077 H         1 <0>         0.4234
     36 H8         -3.6741   -3.9140    2.3798 H         1 <0>         0.4116
     37 H9         -2.7709   -8.9873    0.3711 H         1 <0>         0.1013
     38 H10        -1.0075   -8.7466    0.3956 H         1 <0>         0.0606
     39 H11        -1.9730   -8.4024    1.8508 H         1 <0>         0.0590
     40 H12        -2.9151   -3.6856   -1.7921 H         1 <0>         0.1167
     41 H13        -3.8694   -4.3993   -3.9456 H         1 <0>         0.1339
     42 H14         0.6961   -5.7715   -2.6849 H         1 <0>         0.1341
     43 H15         1.8013   -6.1211   -4.4244 H         1 <0>         0.0570
     44 H16         1.1438   -7.5817   -3.6482 H         1 <0>         0.0531
     45 H17         1.6851   -7.6414   -5.3428 H         1 <0>         0.1006
     46 H18        -4.2762   -5.8368   -6.9962 H         1 <0>         0.0999
     47 H19        -4.6645   -5.8239   -5.2592 H         1 <0>         0.0541
     48 H20        -4.0075   -4.3629   -6.0352 H         1 <0>         0.0538
     49 H21         0.2661   -0.1898   -2.1746 H         1 <0>         0.0958
     50 H22         1.8018   -0.3139   -1.4406 H         1 <0>         0.1031
     51 H23         0.4850   -0.2324    2.0271 H         1 <0>         0.0646
     52 H24         0.8971   -1.6919    1.0952 H         1 <0>         0.0583
     53 H25         1.9617   -0.2667    1.0338 H         1 <0>         0.0673
@<TRIPOS>BOND
     1    1    2 1
     2    1   30 1
     3    1   31 1
     4    1   32 1
     5    2   28 1
     6    2    3 1
     7    2   29 1
     8    3    4 1
     9    3   33 1
    10    3   34 1
    11    4   10 1
    12    4    5 2
    13    5    6 1
    14    5   26 1
    15    6    7 1
    16    6    8 1
    17    6   16 1
    18    8    9 2
    19    8   12 1
    20    9   10 1
    21    9   11 1
    22   11   35 1
    23   11   36 1
    24   12   13 2
    25   12   14 1
    26   14   15 1
    27   15   37 1
    28   15   38 1
    29   15   39 1
    30   16   21 ar
    31   16   17 ar
    32   17   18 ar
    33   17   40 1
    34   18   19 ar
    35   18   41 1
    36   19   20 ar
    37   19   24 1
    38   20   21 ar
    39   20   22 1
    40   21   42 1
    41   22   23 1
    42   23   43 1
    43   23   44 1
    44   23   45 1
    45   24   25 1
    46   25   46 1
    47   25   47 1
    48   25   48 1
    49   26   27 2
    50   26   28 1
    51   28   49 1
    52   28   50 1
    53   29   51 1
    54   29   52 1
    55   29   53 1
