@<TRIPOS>MOLECULE
ZINC20499639
   59    61     0     0     0
SMALL
USER_CHARGES
N-[5-chloro-2-[4-(3-methylbutanoyl)piperazin-1-yl]phenyl]-4-methyl-3-nitro-benzamide
@<TRIPOS>ATOM
      1 C1         -5.7696   -1.4680    1.5004 C.3       1 <0>        -0.1332
      2 C2         -4.5603   -0.6729    1.0802 C.ar      1 <0>         0.0133
      3 C3         -3.4278   -1.3280    0.6296 C.ar      1 <0>        -0.1262
      4 C4         -2.3196   -0.6061    0.2380 C.ar      1 <0>        -0.0298
      5 C5         -2.3383    0.7881    0.3078 C.ar      1 <0>        -0.1406
      6 C6         -3.4838    1.4426    0.7633 C.ar      1 <0>         0.0099
      7 C7         -4.5875    0.7086    1.1464 C.ar      1 <0>        -0.0556
      8 N1         -5.8032    1.4010    1.6297 N.pl3     1 <0>         0.0287
      9 O1         -5.7910    2.6073    1.7976 O.2       1 <0>        -0.1567
     10 O2         -6.8159    0.7644    1.8596 O.3       1 <0>        -0.1488
     11 C8         -1.1523    1.5680   -0.1048 C.2       1 <0>         0.5638
     12 O3         -1.1733    2.7822   -0.0478 O.2       1 <0>        -0.5067
     13 N2         -0.0477    0.9330   -0.5442 N.am      1 <0>        -0.6616
     14 C9          1.1167    1.6617   -0.8186 C.ar      1 <0>         0.1911
     15 C10         1.0310    2.9951   -1.1902 C.ar      1 <0>        -0.1245
     16 C11         2.1824    3.7138   -1.4569 C.ar      1 <0>        -0.0130
     17 C12         3.4208    3.1035   -1.3628 C.ar      1 <0>        -0.1173
     18 C13         3.5143    1.7736   -0.9976 C.ar      1 <0>        -0.1125
     19 C14         2.3649    1.0469   -0.7243 C.ar      1 <0>         0.0566
     20 N3          2.4576   -0.2998   -0.3544 N.pl3     1 <0>        -0.4998
     21 C15         3.1584   -0.4464    0.9284 C.3       1 <0>         0.0431
     22 C16         3.0804   -1.9070    1.3852 C.3       1 <0>         0.1102
     23 N4          3.5834   -2.7633    0.3004 N.am      1 <0>        -0.6184
     24 C17         3.0247   -2.5791   -1.0476 C.3       1 <0>         0.1147
     25 C18         3.1048   -1.0920   -1.4087 C.3       1 <0>         0.0414
     26 C19         4.5316   -3.6919    0.5352 C.2       1 <0>         0.5168
     27 O4          4.9352   -4.3892   -0.3714 O.2       1 <0>        -0.5314
     28 C20         5.0903   -3.8638    1.9242 C.3       1 <0>        -0.1382
     29 C21         6.1424   -4.9747    1.9168 C.3       1 <0>        -0.0813
     30 C22         6.7982   -5.0652    3.2962 C.3       1 <0>        -0.1508
     31 C23         5.4730   -6.3090    1.5819 C.3       1 <0>        -0.1555
     32 Cl1         2.0733    5.3844   -1.9161 Cl        1 <0>        -0.0577
     33 H1         -5.5627   -2.5416    1.3794 H         1 <0>         0.0793
     34 H2         -6.6289   -1.1873    0.8736 H         1 <0>         0.1004
     35 H3         -5.9999   -1.2555    2.5548 H         1 <0>         0.0939
     36 H4         -3.4130   -2.4068    0.5803 H         1 <0>         0.1569
     37 H5         -1.4378   -1.1184   -0.1174 H         1 <0>         0.1469
     38 H6         -3.5063    2.5211    0.8154 H         1 <0>         0.1678
     39 H7         -0.0605   -0.1576   -0.6874 H         1 <0>         0.4426
     40 H8          0.0657    3.4732   -1.2682 H         1 <0>         0.1674
     41 H9          4.3168    3.6677   -1.5756 H         1 <0>         0.1360
     42 H10         4.4823    1.3002   -0.9255 H         1 <0>         0.1325
     43 H11         4.2120   -0.1550    0.8060 H         1 <0>         0.0490
     44 H12         2.6842    0.2003    1.6813 H         1 <0>         0.0927
     45 H13         3.6962   -2.0427    2.2865 H         1 <0>         0.0947
     46 H14         2.0355   -2.1647    1.6128 H         1 <0>         0.0801
     47 H15         3.6054   -3.1723   -1.7694 H         1 <0>         0.1012
     48 H16         1.9763   -2.9120   -1.0587 H         1 <0>         0.0756
     49 H17         2.5913   -0.9177   -2.3658 H         1 <0>         0.0930
     50 H18         4.1592   -0.7915   -1.4982 H         1 <0>         0.0490
     51 H19         5.5540   -2.9217    2.2521 H         1 <0>         0.0930
     52 H20         4.2780   -4.1326    2.6155 H         1 <0>         0.0946
     53 H21         6.9086   -4.7490    1.1605 H         1 <0>         0.0776
     54 H22         7.5546   -5.8639    3.2909 H         1 <0>         0.0600
     55 H23         6.0319   -5.2909    4.0524 H         1 <0>         0.0557
     56 H24         7.2796   -4.1059    3.5370 H         1 <0>         0.0547
     57 H25         6.2295   -7.1076    1.5766 H         1 <0>         0.0541
     58 H26         5.0015   -6.2439    0.5902 H         1 <0>         0.0734
     59 H27         4.7067   -6.5348    2.3381 H         1 <0>         0.0478
@<TRIPOS>BOND
     1    1    2 1
     2    1   33 1
     3    1   34 1
     4    1   35 1
     5    2    7 ar
     6    2    3 ar
     7    3    4 ar
     8    3   36 1
     9    4    5 ar
    10    4   37 1
    11    5    6 ar
    12    5   11 1
    13    6    7 ar
    14    6   38 1
    15    7    8 1
    16    8    9 2
    17    8   10 1
    18   11   12 2
    19   11   13 am
    20   13   14 1
    21   13   39 1
    22   14   19 ar
    23   14   15 ar
    24   15   16 ar
    25   15   40 1
    26   16   17 ar
    27   16   32 1
    28   17   18 ar
    29   17   41 1
    30   18   19 ar
    31   18   42 1
    32   19   20 1
    33   20   25 1
    34   20   21 1
    35   21   22 1
    36   21   43 1
    37   21   44 1
    38   22   23 1
    39   22   45 1
    40   22   46 1
    41   23   24 1
    42   23   26 am
    43   24   25 1
    44   24   47 1
    45   24   48 1
    46   25   49 1
    47   25   50 1
    48   26   27 2
    49   26   28 1
    50   28   29 1
    51   28   51 1
    52   28   52 1
    53   29   30 1
    54   29   31 1
    55   29   53 1
    56   30   54 1
    57   30   55 1
    58   30   56 1
    59   31   57 1
    60   31   58 1
    61   31   59 1
