@<TRIPOS>MOLECULE
ZINC61262954
   53    54     0     0     0
SMALL
USER_CHARGES

@<TRIPOS>ATOM
      1 C1         -1.2537    1.5831    1.3457 C.3       1 <0>        -0.1676
      2 C2         -1.3337    0.0579    1.4367 C.3       1 <0>         0.1132
      3 N1         -0.1546   -0.4518    2.1412 N.am      1 <0>        -0.7263
      4 C3         -0.0091   -1.7768    2.3404 C.2       1 <0>         0.5579
      5 O1         -0.8561   -2.5489    1.9355 O.2       1 <0>        -0.5330
      6 C4          1.1808   -2.2912    3.0515 C.ar      1 <0>        -0.1190
      7 C5          2.1523   -1.4060    3.5226 C.ar      1 <0>        -0.0966
      8 C6          3.2618   -1.8886    4.1858 C.ar      1 <0>        -0.1027
      9 C7          3.4163   -3.2479    4.3859 C.ar      1 <0>        -0.0884
     10 C8          2.4552   -4.1370    3.9210 C.ar      1 <0>         0.1492
     11 C9          1.3337   -3.6618    3.2589 C.ar      1 <0>        -0.0672
     12 N2          2.6164   -5.5122    4.1263 N.am      1 <0>        -0.6735
     13 C10         2.0108   -6.3918    3.3041 C.2       1 <0>         0.7073
     14 O2          1.4139   -5.9945    2.3222 O.2       1 <0>        -0.5526
     15 N3          2.0668   -7.7118    3.5704 N.am      1 <0>        -0.7370
     16 C11         1.4085   -8.6680    2.6767 C.3       1 <0>         0.1256
     17 C12         1.5150  -10.0752    3.2677 C.3       1 <0>         0.0795
     18 C13         0.8260  -10.1108    4.6075 C.2       1 <0>        -0.1613
     19 C14         1.5595  -10.0254    5.7760 C.2       1 <0>        -0.1656
     20 C15         0.9089  -10.0605    6.9646 C.2       1 <0>        -0.1461
     21 S1         -0.7932  -10.2184    6.4494 S.3       1 <0>         0.1416
     22 C16        -0.5228  -10.2213    4.6847 C.2       1 <0>        -0.1956
     23 N4          0.8733  -11.0368    2.3614 N.4       1 <0>        -0.3797
     24 C17         1.6140  -11.0844    1.0937 C.3       1 <0>        -0.0554
     25 C18         0.8752  -12.3692    2.9800 C.3       1 <0>        -0.0491
     26 C19         4.6316   -3.7669    5.1104 C.3       1 <0>        -0.1202
     27 H1         -0.3536    1.8679    0.8009 H         1 <0>         0.0632
     28 H2         -2.1309    1.9623    0.8215 H         1 <0>         0.0778
     29 H3         -1.2196    2.0057    2.3499 H         1 <0>         0.0632
     30 H4         -2.2338   -0.2269    1.9814 H         1 <0>         0.0699
     31 H5         -1.3677   -0.3647    0.4325 H         1 <0>         0.0699
     32 H6          0.5213    0.1644    2.4643 H         1 <0>         0.4008
     33 H7          2.0355   -0.3436    3.3675 H         1 <0>         0.1299
     34 H8          4.0123   -1.2023    4.5494 H         1 <0>         0.1377
     35 H9          0.5832   -4.3510    2.9011 H         1 <0>         0.1597
     36 H10         3.1640   -5.8322    4.8602 H         1 <0>         0.4099
     37 H11         2.5430   -8.0288    4.3538 H         1 <0>         0.4027
     38 H12         0.3580   -8.3986    2.5667 H         1 <0>         0.0942
     39 H13         1.8933   -8.6462    1.7007 H         1 <0>         0.0932
     40 H14         2.5654  -10.3384    3.3922 H         1 <0>         0.1495
     41 H15         2.6350   -9.9326    5.7424 H         1 <0>         0.1437
     42 H16         1.3148  -10.0071    7.9640 H         1 <0>         0.1990
     43 H17        -1.2461  -10.2935    3.8859 H         1 <0>         0.1888
     44 H18         2.6152  -11.4767    1.2724 H         1 <0>         0.1265
     45 H19         1.0901  -11.7321    0.3909 H         1 <0>         0.1316
     46 H20         1.6864  -10.0797    0.6773 H         1 <0>         0.1279
     47 H21         0.3256  -12.3339    3.9206 H         1 <0>         0.1249
     48 H22         0.3991  -13.0827    2.3075 H         1 <0>         0.1291
     49 H23         1.9025  -12.6796    3.1709 H         1 <0>         0.1243
     50 H24         4.4235   -3.8173    6.1792 H         1 <0>         0.0774
     51 H25         4.8774   -4.7624    4.7407 H         1 <0>         0.0625
     52 H26         5.4729   -3.0963    4.9353 H         1 <0>         0.0796
     53 H27        -0.0777  -10.7495    2.1847 H         1 <0>         0.4255
@<TRIPOS>BOND
     1    1    2 1
     2    1   27 1
     3    1   28 1
     4    1   29 1
     5    2    3 1
     6    2   30 1
     7    2   31 1
     8    3    4 am
     9    3   32 1
    10    4    5 2
    11    4    6 1
    12    6   11 ar
    13    6    7 ar
    14    7    8 ar
    15    7   33 1
    16    8    9 ar
    17    8   34 1
    18    9   10 ar
    19    9   26 1
    20   10   11 ar
    21   10   12 1
    22   11   35 1
    23   12   13 am
    24   12   36 1
    25   13   14 2
    26   13   15 am
    27   15   16 1
    28   15   37 1
    29   16   17 1
    30   16   38 1
    31   16   39 1
    32   17   18 1
    33   17   23 1
    34   17   40 1
    35   18   22 2
    36   18   19 1
    37   19   20 2
    38   19   41 1
    39   20   21 1
    40   20   42 1
    41   21   22 1
    42   22   43 1
    43   23   24 1
    44   23   25 1
    45   23   53 1
    46   24   44 1
    47   24   45 1
    48   24   46 1
    49   25   47 1
    50   25   48 1
    51   25   49 1
    52   26   50 1
    53   26   51 1
    54   26   52 1
