@<TRIPOS>MOLECULE
ZINC04809575
   48    51     0     0     0
SMALL
USER_CHARGES

@<TRIPOS>ATOM
      1 C1         -2.0444   -2.0051    1.7188 C.3       1 <0>        -0.1156
      2 C2         -0.8749   -1.7038    0.8173 C.ar      1 <0>        -0.0935
      3 C3         -0.7142   -2.4076   -0.3596 C.ar      1 <0>        -0.0743
      4 C4          0.3657   -2.1301   -1.1932 C.ar      1 <0>        -0.0385
      5 C5          1.2826   -1.1383   -0.8323 C.ar      1 <0>         0.1334
      6 C6          1.1097   -0.4396    0.3514 C.ar      1 <0>        -0.1461
      7 C7          0.0307   -0.7191    1.1692 C.ar      1 <0>        -0.0601
      8 C8         -0.1565    0.0484    2.4525 C.3       1 <0>        -0.1197
      9 O1          2.3398   -0.8611   -1.6393 O.3       1 <0>        -0.4898
     10 C9          0.5432   -2.8841   -2.4591 C.2       1 <0>         0.1247
     11 C10         0.3691   -4.2611   -2.6342 C.2       1 <0>        -0.1669
     12 C11         0.6402   -4.5085   -3.9662 C.2       1 <0>        -0.0653
     13 N1          0.9573   -3.3007   -4.5198 N.pl3     1 <0>        -0.3350
     14 H1          1.1950   -3.1592   -5.4495 H         1 <0>         0.4523
     15 N2          0.8884   -2.3785   -3.6269 N.2       1 <0>        -0.2394
     16 C12         0.4741   -5.9445   -4.2172 C.2       1 <0>         0.5976
     17 O2          0.6407   -6.4849   -5.2940 O.2       1 <0>        -0.5226
     18 N3          0.1123   -6.5788   -3.0875 N.am      1 <0>        -0.5888
     19 C13         0.0179   -5.5843   -2.0109 C.3       1 <0>         0.2495
     20 H2         -0.9976   -5.5550   -1.6158 H         1 <0>         0.1055
     21 C14         0.9939   -5.9151   -0.9114 C.ar      1 <0>        -0.0734
     22 C15         2.3479   -5.9738   -1.1836 C.ar      1 <0>        -0.0532
     23 C16         3.2431   -6.2772   -0.1750 C.ar      1 <0>        -0.1236
     24 C17         2.7844   -6.5215    1.1060 C.ar      1 <0>        -0.1088
     25 C18         1.4305   -6.4619    1.3784 C.ar      1 <0>        -0.1202
     26 C19         0.5356   -6.1542    0.3707 C.ar      1 <0>        -0.0928
     27 C20        -0.1439   -8.0150   -2.9540 C.3       1 <0>         0.1427
     28 C21         1.1819   -8.7539   -2.7614 C.3       1 <0>         0.0542
     29 O3          1.7257   -8.4304   -1.4801 O.3       1 <0>        -0.5507
     30 H3         -2.8913   -1.3796    1.4365 H         1 <0>         0.0714
     31 H4         -2.3190   -3.0552    1.6189 H         1 <0>         0.0676
     32 H5         -1.7687   -1.7984    2.7529 H         1 <0>         0.0708
     33 H6         -1.4255   -3.1729   -0.6332 H         1 <0>         0.1269
     34 H7          1.8162    0.3269    0.6335 H         1 <0>         0.1315
     35 H8          0.3631   -0.4646    3.2618 H         1 <0>         0.0744
     36 H9          0.2512    1.0528    2.3380 H         1 <0>         0.0682
     37 H10        -1.2193    0.1122    2.6859 H         1 <0>         0.0721
     38 H11         2.1875   -0.1253   -2.2481 H         1 <0>         0.3919
     39 H12         2.7062   -5.7829   -2.1844 H         1 <0>         0.1019
     40 H13         4.3009   -6.3238   -0.3878 H         1 <0>         0.1142
     41 H14         3.4838   -6.7593    1.8938 H         1 <0>         0.1157
     42 H15         1.0721   -6.6531    2.3791 H         1 <0>         0.1174
     43 H16        -0.5218   -6.1040    0.5844 H         1 <0>         0.1157
     44 H17        -0.7865   -8.1908   -2.0913 H         1 <0>         0.0977
     45 H18        -0.6366   -8.3814   -3.8547 H         1 <0>         0.1001
     46 H19         1.0111   -9.8287   -2.8227 H         1 <0>         0.0587
     47 H20         1.8824   -8.4523   -3.5401 H         1 <0>         0.0488
     48 H21         2.5685   -8.8646   -1.2896 H         1 <0>         0.3735
@<TRIPOS>BOND
     1    1    2 1
     2    1   30 1
     3    1   31 1
     4    1   32 1
     5    2    7 ar
     6    2    3 ar
     7    3    4 ar
     8    3   33 1
     9    4    5 ar
    10    4   10 1
    11    5    6 ar
    12    5    9 1
    13    6    7 ar
    14    6   34 1
    15    7    8 1
    16    8   35 1
    17    8   36 1
    18    8   37 1
    19    9   38 1
    20   10   15 2
    21   10   11 1
    22   11   19 1
    23   11   12 2
    24   12   13 1
    25   12   16 1
    26   13   14 1
    27   13   15 1
    28   16   17 2
    29   16   18 am
    30   18   19 1
    31   18   27 1
    32   19   20 1
    33   19   21 1
    34   21   26 ar
    35   21   22 ar
    36   22   23 ar
    37   22   39 1
    38   23   24 ar
    39   23   40 1
    40   24   25 ar
    41   24   41 1
    42   25   26 ar
    43   25   42 1
    44   26   43 1
    45   27   28 1
    46   27   44 1
    47   27   45 1
    48   28   29 1
    49   28   46 1
    50   28   47 1
    51   29   48 1
