@<TRIPOS>MOLECULE
ZINC39839614
   69    73     0     0     0
SMALL
USER_CHARGES

@<TRIPOS>ATOM
      1 C1         -0.0187    1.5258    0.0104 C.3       1 <0>        -0.1513
      2 C2          0.0021   -0.0041    0.0020 C.3       1 <0>         0.0520
      3 O1          0.6709   -0.4649   -1.1737 O.3       1 <0>        -0.3024
      4 C3          0.7768   -1.8109   -1.3363 C.ar      1 <0>         0.1062
      5 C4          0.2435   -2.6690   -0.3879 C.ar      1 <0>        -0.1369
      6 C5          0.3516   -4.0370   -0.5549 C.ar      1 <0>        -0.0946
      7 C6          0.9916   -4.5523   -1.6668 C.ar      1 <0>        -0.0969
      8 C7          1.5263   -3.7019   -2.6164 C.ar      1 <0>        -0.1737
      9 C8          1.4160   -2.3297   -2.4582 C.ar      1 <0>         0.1142
     10 O2          1.9361   -1.4917   -3.3945 O.3       1 <0>        -0.3017
     11 C9          2.5780   -2.0947   -4.5199 C.3       1 <0>         0.0561
     12 C10         3.0962   -1.0022   -5.4574 C.3       1 <0>        -0.1140
     13 C11         3.7834   -1.6478   -6.6622 C.3       1 <0>        -0.0932
     14 C12         2.7521   -2.4275   -7.4803 C.3       1 <0>        -0.1541
     15 C13         4.4100   -0.5592   -7.5358 C.3       1 <0>        -0.1477
     16 C14        -0.2290   -4.9686    0.4775 C.3       1 <0>         0.2356
     17 H1         -0.3814   -4.4390    1.4180 H         1 <0>         0.1280
     18 C15        -1.5218   -5.5360   -0.0095 C.2       1 <0>        -0.2391
     19 C16        -2.7862   -4.8872   -0.3722 C.2       1 <0>         0.4567
     20 O3         -2.9081   -3.6804   -0.4865 O.2       1 <0>        -0.4234
     21 C17        -3.9034   -5.8412   -0.5874 C.ar      1 <0>        -0.2020
     22 C18        -5.2091   -5.3757   -0.7414 C.ar      1 <0>        -0.0213
     23 C19        -6.2345   -6.2757   -0.9351 C.ar      1 <0>        -0.0635
     24 C20        -5.9659   -7.6381   -0.9756 C.ar      1 <0>        -0.0453
     25 C21        -4.6809   -8.1081   -0.8267 C.ar      1 <0>        -0.1214
     26 C22        -3.6256   -7.2171   -0.6319 C.ar      1 <0>         0.1483
     27 O4         -2.3711   -7.7056   -0.4982 O.3       1 <0>        -0.1789
     28 C23        -1.3798   -6.8925   -0.0837 C.2       1 <0>         0.0858
     29 C24        -0.0156   -7.2388    0.3521 C.2       1 <0>         0.5706
     30 O5          0.4321   -8.3670    0.4071 O.2       1 <0>        -0.4881
     31 N1          0.6648   -6.1202    0.6823 N.am      1 <0>        -0.5826
     32 C25         2.0489   -6.0616    1.1589 C.3       1 <0>         0.1420
     33 C26         2.0670   -6.1591    2.6857 C.3       1 <0>         0.0604
     34 H2          1.6072   -7.0926    3.0101 H         1 <0>         0.0788
     35 C27         3.5207   -6.0638    3.2134 C.3       1 <0>        -0.1488
     36 C28         3.2773   -5.5395    4.6549 C.3       1 <0>        -0.1549
     37 C29         2.0448   -4.6288    4.4685 C.3       1 <0>         0.0501
     38 O6          1.3812   -5.0378    3.2651 O.3       1 <0>        -0.3766
     39 Cl1        -7.8631   -5.7067   -1.1282 Cl        1 <0>        -0.0472
     40 H3          1.0039    1.9031    0.0027 H         1 <0>         0.0659
     41 H4         -0.5459    1.8868   -0.8726 H         1 <0>         0.0667
     42 H5         -0.5289    1.8773    0.9072 H         1 <0>         0.0785
     43 H6          0.5293   -0.3651    0.8851 H         1 <0>         0.0610
     44 H7         -1.0205   -0.3814    0.0098 H         1 <0>         0.0646
     45 H8         -0.2563   -2.2690    0.4819 H         1 <0>         0.1388
     46 H9          1.0743   -5.6217   -1.7935 H         1 <0>         0.1210
     47 H10         2.0261   -4.1070   -3.4839 H         1 <0>         0.1362
     48 H11         3.4131   -2.7058   -4.1775 H         1 <0>         0.0610
     49 H12         1.8634   -2.7219   -5.0528 H         1 <0>         0.0639
     50 H13         2.2611   -0.3911   -5.7998 H         1 <0>         0.0752
     51 H14         3.8108   -0.3750   -4.9244 H         1 <0>         0.0748
     52 H15         4.5615   -2.3279   -6.3154 H         1 <0>         0.0723
     53 H16         1.9741   -1.7475   -7.8272 H         1 <0>         0.0578
     54 H17         3.2417   -2.8875   -8.3387 H         1 <0>         0.0577
     55 H18         2.3057   -3.2031   -6.8580 H         1 <0>         0.0546
     56 H19         5.1447   -0.0037   -6.9530 H         1 <0>         0.0565
     57 H20         4.8996   -1.0191   -8.3942 H         1 <0>         0.0578
     58 H21         3.6319    0.1209   -7.8827 H         1 <0>         0.0569
     59 H22        -5.4154   -4.3161   -0.7088 H         1 <0>         0.1562
     60 H23        -6.7753   -8.3371   -1.1260 H         1 <0>         0.1550
     61 H24        -4.4891   -9.1703   -0.8607 H         1 <0>         0.1582
     62 H25         2.6146   -6.8913    0.7351 H         1 <0>         0.1071
     63 H26         2.5000   -5.1187    0.8497 H         1 <0>         0.1006
     64 H27         3.9987   -7.0434    3.2272 H         1 <0>         0.0888
     65 H28         4.1046   -5.3520    2.6299 H         1 <0>         0.0839
     66 H29         3.0528   -6.3620    5.3341 H         1 <0>         0.0783
     67 H30         4.1338   -4.9656    5.0087 H         1 <0>         0.0852
     68 H31         1.3703   -4.7410    5.3174 H         1 <0>         0.0691
     69 H32         2.3625   -3.5897    4.3819 H         1 <0>         0.0713
@<TRIPOS>BOND
     1    1    2 1
     2    1   40 1
     3    1   41 1
     4    1   42 1
     5    2    3 1
     6    2   43 1
     7    2   44 1
     8    3    4 1
     9    4    9 ar
    10    4    5 ar
    11    5    6 ar
    12    5   45 1
    13    6    7 ar
    14    6   16 1
    15    7    8 ar
    16    7   46 1
    17    8    9 ar
    18    8   47 1
    19    9   10 1
    20   10   11 1
    21   11   12 1
    22   11   48 1
    23   11   49 1
    24   12   13 1
    25   12   50 1
    26   12   51 1
    27   13   14 1
    28   13   15 1
    29   13   52 1
    30   14   53 1
    31   14   54 1
    32   14   55 1
    33   15   56 1
    34   15   57 1
    35   15   58 1
    36   16   17 1
    37   16   31 1
    38   16   18 1
    39   18   28 2
    40   18   19 1
    41   19   20 2
    42   19   21 1
    43   21   26 ar
    44   21   22 ar
    45   22   23 ar
    46   22   59 1
    47   23   24 ar
    48   23   39 1
    49   24   25 ar
    50   24   60 1
    51   25   26 ar
    52   25   61 1
    53   26   27 1
    54   27   28 1
    55   28   29 1
    56   29   30 2
    57   29   31 am
    58   31   32 1
    59   32   33 1
    60   32   62 1
    61   32   63 1
    62   33   34 1
    63   33   38 1
    64   33   35 1
    65   35   36 1
    66   35   64 1
    67   35   65 1
    68   36   37 1
    69   36   66 1
    70   36   67 1
    71   37   38 1
    72   37   68 1
    73   37   69 1
