@<TRIPOS>MOLECULE
ZINC12873078
   57    61     0     0     0
SMALL
USER_CHARGES
3-[(3aS,4S,6R,6aR)-1,2',3-trioxo-2-phenethyl-spiro[3a,4,5,6a-tetrahydropyrrolo[3,4-c]pyrrole-6,3'-indoline]-4-yl]propanamide
@<TRIPOS>ATOM
      1 C1         -6.8743   -0.4596    1.4562 C.ar      1 <0>        -0.1128
      2 C2         -5.7740   -1.2964    1.4465 C.ar      1 <0>        -0.1162
      3 C3         -4.4992   -0.7620    1.4475 C.ar      1 <0>        -0.1114
      4 C4         -4.3246    0.6092    1.4574 C.ar      1 <0>        -0.0960
      5 C5         -5.4248    1.4460    1.4720 C.ar      1 <0>        -0.1112
      6 C6         -6.6997    0.9116    1.4666 C.ar      1 <0>        -0.1166
      7 C7         -2.9347    1.1919    1.4585 C.3       1 <0>        -0.0904
      8 C8         -2.4678    1.3999    0.0164 C.3       1 <0>         0.1020
      9 N1         -1.1167    1.9663    0.0175 N.am      1 <0>        -0.5647
     10 C9         -0.0144    1.2081    0.0087 C.2       1 <0>         0.5130
     11 O1          0.0021   -0.0041    0.0020 O.2       1 <0>        -0.4233
     12 C10         1.2072    2.0982    0.0018 C.3       1 <0>        -0.1337
     13 H1          1.8497    1.9223   -0.8610 H         1 <0>         0.1859
     14 C11         1.9489    1.9575    1.3478 C.3       1 <0>         0.0415
     15 H2          3.0058    2.1940    1.2249 H         1 <0>         0.1727
     16 C12         1.0392    4.1089    1.3779 C.3       1 <0>         0.0920
     17 C13         0.6074    3.5318    0.0240 C.3       1 <0>        -0.1197
     18 H3          0.9373    4.1421   -0.8168 H         1 <0>         0.1835
     19 C14        -0.8845    3.2838    0.0310 C.2       1 <0>         0.5122
     20 O2         -1.7375    4.1451    0.0420 O.2       1 <0>        -0.4146
     21 C15         2.2565    4.9789    1.2425 C.ar      1 <0>        -0.2038
     22 C16         3.5364    4.7542    0.7871 C.ar      1 <0>        -0.0428
     23 C17         4.4609    5.7836    0.7837 C.ar      1 <0>        -0.1247
     24 C18         4.0960    7.0376    1.2389 C.ar      1 <0>        -0.0419
     25 C19         2.8154    7.2669    1.6971 C.ar      1 <0>        -0.1238
     26 C20         1.8786    6.2360    1.7047 C.ar      1 <0>         0.1725
     27 N2          0.5433    6.2189    2.1134 N.am      1 <0>        -0.6404
     28 C21        -0.0206    5.0057    1.9562 C.2       1 <0>         0.5259
     29 O3         -1.1614    4.6966    2.2283 O.2       1 <0>        -0.4219
     30 C22         1.7802    0.5418    1.9031 C.3       1 <0>        -0.1309
     31 C23         2.6231    0.3873    3.1705 C.3       1 <0>        -0.1576
     32 C24         2.4569   -1.0071    3.7174 C.2       1 <0>         0.5133
     33 O4          1.7353   -1.7993    3.1493 O.2       1 <0>        -0.5261
     34 N3          3.1102   -1.3739    4.8377 N.am      1 <0>        -0.8511
     35 H4         -7.8703   -0.8772    1.4554 H         1 <0>         0.1260
     36 H5         -5.9104   -2.3678    1.4384 H         1 <0>         0.1261
     37 H6         -3.6396   -1.4158    1.4402 H         1 <0>         0.1228
     38 H7         -5.2884    2.5173    1.4842 H         1 <0>         0.1220
     39 H8         -7.5593    1.5654    1.4738 H         1 <0>         0.1257
     40 H9         -2.2544    0.5077    1.9656 H         1 <0>         0.0759
     41 H10        -2.9425    2.1492    1.9795 H         1 <0>         0.0811
     42 H11        -3.1482    2.0840   -0.4907 H         1 <0>         0.1052
     43 H12        -2.4600    0.4425   -0.5047 H         1 <0>         0.1069
     44 H13         3.8188    3.7740    0.4324 H         1 <0>         0.1385
     45 H14         5.4648    5.6084    0.4262 H         1 <0>         0.1489
     46 H15         4.8175    7.8412    1.2358 H         1 <0>         0.1500
     47 H16         2.5381    8.2489    2.0508 H         1 <0>         0.1454
     48 H17         0.0762    6.9910    2.4692 H         1 <0>         0.4383
     49 H18         0.7308    0.3676    2.1411 H         1 <0>         0.1006
     50 H19         2.1087   -0.1824    1.1576 H         1 <0>         0.1424
     51 H20         3.6724    0.5615    2.9325 H         1 <0>         0.1153
     52 H21         2.2945    1.1115    3.9159 H         1 <0>         0.0899
     53 H22         3.6873   -0.7404    5.2921 H         1 <0>         0.4037
     54 H23         3.0032   -2.2714    5.1897 H         1 <0>         0.4113
     55 N4          1.3067    2.9506    2.2119 N.4       1 <0>        -0.4989
     56 H24         1.9325    3.2063    2.9847 H         1 <0>         0.4470
     57 H25         0.4292    2.5762    2.5916 H         1 <0>         0.4366
@<TRIPOS>BOND
     1    1    6 ar
     2    1    2 ar
     3    1   35 1
     4    2    3 ar
     5    2   36 1
     6    3    4 ar
     7    3   37 1
     8    4    5 ar
     9    4    7 1
    10    5    6 ar
    11    5   38 1
    12    6   39 1
    13    7    8 1
    14    7   40 1
    15    7   41 1
    16    8    9 1
    17    8   42 1
    18    8   43 1
    19    9   19 am
    20    9   10 am
    21   10   11 2
    22   10   12 1
    23   12   13 1
    24   12   17 1
    25   12   14 1
    26   14   15 1
    27   14   30 1
    28   14   55 1
    29   16   28 1
    30   16   17 1
    31   16   21 1
    32   16   55 1
    33   17   18 1
    34   17   19 1
    35   19   20 2
    36   21   26 ar
    37   21   22 ar
    38   22   23 ar
    39   22   44 1
    40   23   24 ar
    41   23   45 1
    42   24   25 ar
    43   24   46 1
    44   25   26 ar
    45   25   47 1
    46   26   27 1
    47   27   28 am
    48   27   48 1
    49   28   29 2
    50   30   31 1
    51   30   49 1
    52   30   50 1
    53   31   32 1
    54   31   51 1
    55   31   52 1
    56   32   33 2
    57   32   34 am
    58   34   53 1
    59   34   54 1
    60   55   56 1
    61   55   57 1
