@<TRIPOS>MOLECULE
ZINC39711281
   76    80     0     0     0
SMALL
USER_CHARGES

@<TRIPOS>ATOM
      1 C1          0.3249    1.3035   -0.1170 C.3       1 <0>        -0.1244
      2 C2          0.4636   -0.1964   -0.0701 C.ar      1 <0>        -0.0724
      3 C3          0.6473   -0.9100   -1.2405 C.ar      1 <0>        -0.1023
      4 C4          0.7746   -2.2863   -1.2020 C.ar      1 <0>        -0.1072
      5 C5          0.7189   -2.9530    0.0063 C.ar      1 <0>        -0.1173
      6 C6          0.5349   -2.2395    1.1836 C.ar      1 <0>         0.1377
      7 C7          0.4126   -0.8561    1.1419 C.ar      1 <0>        -0.0919
      8 C8          0.2185   -0.0771    2.4172 C.3       1 <0>        -0.1094
      9 N1          0.4782   -2.9105    2.4073 N.pl3     1 <0>        -0.6674
     10 C9         -0.8018   -3.3984    2.9438 C.3       1 <0>         0.1228
     11 C10        -0.9355   -2.9186    4.3928 C.3       1 <0>        -0.0431
     12 N2          0.2435   -3.3424    5.1585 N.4       1 <0>        -0.3788
     13 C11         1.4451   -2.6819    4.6330 C.3       1 <0>        -0.0350
     14 C12         1.6975   -3.1550    3.1932 C.3       1 <0>         0.1232
     15 C13         0.0649   -2.9786    6.5705 C.3       1 <0>         0.0682
     16 H1         -0.0091   -1.8948    6.6599 H         1 <0>         0.1859
     17 C14        -1.2156   -3.6231    7.1052 C.3       1 <0>        -0.1480
     18 H2         -2.0526   -3.2177    6.5366 H         1 <0>         0.1903
     19 C15        -1.1397   -5.1110    6.8243 C.2       1 <0>         0.0570
     20 C16        -1.2288   -5.9540    7.8919 C.ar      1 <0>        -0.1031
     21 C17        -1.1652   -7.4043    7.7094 C.ar      1 <0>        -0.0550
     22 C18        -1.2589   -8.2083    8.8047 C.ar      1 <0>         0.1011
     23 C19        -1.4141   -7.6721   10.0887 C.ar      1 <0>         0.0417
     24 C20        -1.4795   -6.3359   10.3201 C.ar      1 <0>        -0.1997
     25 C21        -1.3919   -5.4197    9.2553 C.ar      1 <0>         0.3537
     26 N3         -1.4572   -4.1104    9.4975 N.am      1 <0>        -0.5783
     27 C22        -1.3832   -3.1960    8.5459 C.2       1 <0>         0.5462
     28 O1         -1.4491   -2.0147    8.8290 O.2       1 <0>        -0.4036
     29 O2         -1.2012   -9.5574    8.6483 O.3       1 <0>        -0.2918
     30 C23        -1.3046  -10.3527    9.8310 C.3       1 <0>         0.0091
     31 C24         1.2633   -3.4765    7.3810 C.3       1 <0>         0.1014
     32 H3          2.1895   -3.0627    6.9823 H         1 <0>         0.1530
     33 N4          1.3128   -4.9448    7.3737 N.2       1 <0>        -0.2774
     34 N5          1.2088   -5.3532    8.5323 N.2       1 <0>         0.1224
     35 N6          1.0803   -4.3215    9.4615 N.pl3     1 <0>        -0.4990
     36 N7          1.1083   -3.1155    8.8058 N.3       1 <0>        -0.2831
     37 C25         2.2332   -2.2899    9.2651 C.3       1 <0>         0.0700
     38 C26         2.2941   -1.0047    8.4372 C.3       1 <0>        -0.1502
     39 C27         2.0376   -1.9370   10.7410 C.3       1 <0>        -0.1449
     40 C28         3.5395   -3.0681    9.0956 C.3       1 <0>        -0.1839
     41 H4          1.3100    1.7622   -0.0326 H         1 <0>         0.0764
     42 H5         -0.1327    1.5967   -1.0618 H         1 <0>         0.0744
     43 H6         -0.3029    1.6363    0.7096 H         1 <0>         0.0690
     44 H7          0.6912   -0.3911   -2.1867 H         1 <0>         0.1307
     45 H8          0.9172   -2.8406   -2.1179 H         1 <0>         0.1310
     46 H9          0.8180   -4.0281    0.0357 H         1 <0>         0.1240
     47 H10        -0.8468    0.0135    2.6290 H         1 <0>         0.0680
     48 H11         0.7094   -0.5980    3.2394 H         1 <0>         0.0511
     49 H12         0.6527    0.9164    2.3057 H         1 <0>         0.0750
     50 H13        -1.6238   -3.0004    2.3488 H         1 <0>         0.1264
     51 H14        -0.8193   -4.4879    2.9156 H         1 <0>         0.0832
     52 H15        -1.0086   -1.8311    4.4103 H         1 <0>         0.1469
     53 H16        -1.8321   -3.3504    4.8374 H         1 <0>         0.1345
     54 H17         1.2999   -1.6017    4.6432 H         1 <0>         0.1433
     55 H18         2.3027   -2.9394    5.2546 H         1 <0>         0.1350
     56 H19         1.9281   -4.2203    3.1898 H         1 <0>         0.0860
     57 H20         2.5286   -2.5960    2.7632 H         1 <0>         0.1249
     58 H21        -1.0204   -5.4878    5.8193 H         1 <0>         0.1946
     59 H22        -1.0457   -7.8296    6.7239 H         1 <0>         0.1827
     60 H23        -1.4848   -8.3480   10.9280 H         1 <0>         0.1784
     61 H24        -1.6001   -5.9729   11.3301 H         1 <0>         0.1812
     62 H25        -0.4899  -10.1015   10.5101 H         1 <0>         0.0698
     63 H26        -2.2588  -10.1551   10.3194 H         1 <0>         0.0699
     64 H27        -1.2441  -11.4081    9.5656 H         1 <0>         0.1259
     65 H28         0.9864   -4.4372   10.4200 H         1 <0>         0.4646
     66 H29         1.3634   -0.4503    8.5580 H         1 <0>         0.0811
     67 H30         3.1288   -0.3921    8.7780 H         1 <0>         0.0937
     68 H31         2.4334   -1.2561    7.3858 H         1 <0>         0.0519
     69 H32         1.9943   -2.8526   11.3308 H         1 <0>         0.0574
     70 H33         2.8723   -1.3245   11.0818 H         1 <0>         0.0886
     71 H34         1.1070   -1.3826   10.8618 H         1 <0>         0.0780
     72 H35         3.6788   -3.3195    8.0442 H         1 <0>         0.0560
     73 H36         4.3742   -2.4556    9.4364 H         1 <0>         0.0929
     74 H37         3.4962   -3.9837    9.6854 H         1 <0>         0.0672
     75 H38        -1.5647   -3.8150   10.4151 H         1 <0>         0.4454
     76 H39         0.3507   -4.3428    5.0825 H         1 <0>         0.4243
@<TRIPOS>BOND
     1    1    2 1
     2    1   41 1
     3    1   42 1
     4    1   43 1
     5    2    7 ar
     6    2    3 ar
     7    3    4 ar
     8    3   44 1
     9    4    5 ar
    10    4   45 1
    11    5    6 ar
    12    5   46 1
    13    6    7 ar
    14    6    9 1
    15    7    8 1
    16    8   47 1
    17    8   48 1
    18    8   49 1
    19    9   14 1
    20    9   10 1
    21   10   11 1
    22   10   50 1
    23   10   51 1
    24   11   12 1
    25   11   52 1
    26   11   53 1
    27   12   13 1
    28   12   15 1
    29   12   76 1
    30   13   14 1
    31   13   54 1
    32   13   55 1
    33   14   56 1
    34   14   57 1
    35   15   16 1
    36   15   17 1
    37   15   31 1
    38   17   18 1
    39   17   27 1
    40   17   19 1
    41   19   20 2
    42   19   58 1
    43   20   25 ar
    44   20   21 ar
    45   21   22 ar
    46   21   59 1
    47   22   23 ar
    48   22   29 1
    49   23   24 ar
    50   23   60 1
    51   24   25 ar
    52   24   61 1
    53   25   26 2
    54   26   27 am
    55   26   75 1
    56   27   28 2
    57   29   30 1
    58   30   62 1
    59   30   63 1
    60   30   64 1
    61   31   32 1
    62   31   36 1
    63   31   33 1
    64   33   34 2
    65   34   35 1
    66   35   36 1
    67   35   65 1
    68   36   37 1
    69   37   38 1
    70   37   39 1
    71   37   40 1
    72   38   66 1
    73   38   67 1
    74   38   68 1
    75   39   69 1
    76   39   70 1
    77   39   71 1
    78   40   72 1
    79   40   73 1
    80   40   74 1
