@<TRIPOS>MOLECULE
ZINC17576395
   42    43     0     0     0
SMALL
USER_CHARGES
3,4-difluoro-N-[3-[N'-(2-hydroxybenzoyl)hydrazino]-3-oxo-propyl]benzenesulfonamide
@<TRIPOS>ATOM
      1 C1          9.6765    3.8324    0.5962 C.ar      1 <0>        -0.1350
      2 C2         10.8678    3.1900    0.8924 C.ar      1 <0>        -0.0691
      3 C3         10.8783    1.8433    1.1962 C.ar      1 <0>        -0.1548
      4 C4          9.6926    1.1236    1.2067 C.ar      1 <0>         0.1763
      5 C5          8.4855    1.7698    0.9081 C.ar      1 <0>        -0.1656
      6 C6          8.4900    3.1319    0.5973 C.ar      1 <0>        -0.0697
      7 C7          7.2180    1.0148    0.9162 C.2       1 <0>         0.5634
      8 O1          7.2187   -0.1716    1.1824 O.2       1 <0>        -0.5182
      9 N1          6.0592    1.6402    0.6285 N.am      1 <0>        -0.5237
     10 N2          4.8556    0.9233    0.6361 N.am      1 <0>        -0.5189
     11 C8          3.6969    1.5486    0.3484 C.2       1 <0>         0.5193
     12 O2          3.6962    2.7320    0.0829 O.2       1 <0>        -0.5354
     13 C9          2.4022    0.7774    0.3567 C.3       1 <0>        -0.1393
     14 C10         1.2475    1.7155   -0.0006 C.3       1 <0>         0.1277
     15 N3         -0.0111    0.9658    0.0074 N.pl3     1 <0>        -1.1165
     16 S1         -1.4563    1.7742    0.0186 S.o2      1 <0>         2.7026
     17 O3         -2.4755    0.7845   -0.0090 O.2       1 <0>        -0.9466
     18 O4         -1.3685    2.7488    1.0490 O.2       1 <0>        -0.9422
     19 C11        -1.5709    2.6577   -1.5016 C.ar      1 <0>        -0.6695
     20 C12        -1.0886    3.9506   -1.5870 C.ar      1 <0>         0.0006
     21 C13        -1.1722    4.6436   -2.7800 C.ar      1 <0>        -0.1444
     22 C14        -1.7496    4.0473   -3.8876 C.ar      1 <0>         0.1277
     23 C15        -2.2384    2.7528   -3.8004 C.ar      1 <0>         0.0492
     24 C16        -2.1480    2.0595   -2.6059 C.ar      1 <0>        -0.0233
     25 F1         -2.8020    2.1686   -4.8804 F         1 <0>        -0.1199
     26 F2         -1.8363    4.7258   -5.0526 F         1 <0>        -0.1155
     27 O5          9.7015   -0.1999    1.5041 O.3       1 <0>        -0.4777
     28 H1          9.6785    4.8860    0.3591 H         1 <0>         0.1359
     29 H2         11.7937    3.7459    0.8852 H         1 <0>         0.1359
     30 H3         11.8110    1.3494    1.4256 H         1 <0>         0.1401
     31 H4          7.5643    3.6358    0.3618 H         1 <0>         0.1308
     32 H5          6.0587    2.5867    0.4161 H         1 <0>         0.4313
     33 H6          4.8562   -0.0232    0.8485 H         1 <0>         0.4347
     34 H7          2.2356    0.3577    1.3487 H         1 <0>         0.1148
     35 H8          2.4549   -0.0289   -0.3749 H         1 <0>         0.1122
     36 H9          1.4141    2.1353   -0.9927 H         1 <0>         0.0794
     37 H10         1.1948    2.5218    0.7309 H         1 <0>         0.0960
     38 H11         0.0021   -0.0041    0.0020 H         1 <0>         0.4228
     39 H12        -0.6419    4.4179   -0.7219 H         1 <0>         0.1613
     40 H13        -0.7910    5.6518   -2.8466 H         1 <0>         0.1600
     41 H14        -2.5287    1.0512   -2.5366 H         1 <0>         0.1651
     42 H15         9.8131   -0.7752    0.7349 H         1 <0>         0.3983
@<TRIPOS>BOND
     1    1    6 ar
     2    1    2 ar
     3    1   28 1
     4    2    3 ar
     5    2   29 1
     6    3    4 ar
     7    3   30 1
     8    4    5 ar
     9    4   27 1
    10    5    6 ar
    11    5    7 1
    12    6   31 1
    13    7    8 2
    14    7    9 am
    15    9   10 1
    16    9   32 1
    17   10   11 am
    18   10   33 1
    19   11   12 2
    20   11   13 1
    21   13   14 1
    22   13   34 1
    23   13   35 1
    24   14   15 1
    25   14   36 1
    26   14   37 1
    27   15   16 1
    28   15   38 1
    29   16   17 2
    30   16   18 2
    31   16   19 1
    32   19   24 ar
    33   19   20 ar
    34   20   21 ar
    35   20   39 1
    36   21   22 ar
    37   21   40 1
    38   22   23 ar
    39   22   26 1
    40   23   24 ar
    41   23   25 1
    42   24   41 1
    43   27   42 1
