@<TRIPOS>MOLECULE
ZINC63448263
   60    63     0     0     0
SMALL
USER_CHARGES

@<TRIPOS>ATOM
      1 C1         -0.0184    1.5028    0.0103 C.3       1 <0>        -0.0912
      2 C2          0.0021   -0.0041    0.0020 C.2       1 <0>        -0.0319
      3 C3         -1.0863   -0.7768    0.0030 C.2       1 <0>        -0.1654
      4 C4         -0.5311   -2.1901   -0.0073 C.3       1 <0>         0.1912
      5 H1         -0.8370   -2.7309    0.8883 H         1 <0>         0.1668
      6 N1          0.9257   -1.9734   -0.0130 N.2       1 <0>        -0.1568
      7 N2          1.1248   -0.7562   -0.0132 N.2       1 <0>        -0.1413
      8 N3         -0.9570   -2.9052   -1.2129 N.am      1 <0>        -0.6945
      9 C5         -1.4125   -4.1703   -1.1204 C.2       1 <0>         0.5101
     10 O1         -1.4698   -4.7167   -0.0392 O.2       1 <0>        -0.5160
     11 C6         -1.8505   -4.9060   -2.3606 C.3       1 <0>         0.1091
     12 N4         -2.2997   -6.2521   -1.9968 N.am      1 <0>        -0.5855
     13 C7         -1.3070   -7.3193   -1.9829 C.3       1 <0>         0.1730
     14 H2         -0.7652   -7.3024   -1.0373 H         1 <0>         0.1171
     15 C8         -0.3453   -7.0904   -3.1211 C.2       1 <0>        -0.2080
     16 C9         -0.5350   -7.7287   -4.2643 C.2       1 <0>        -0.0801
     17 S1         -1.9826   -8.7468   -4.0050 S.3       1 <0>        -0.1164
     18 C10        -1.9719   -8.7037   -2.1760 C.3       1 <0>        -0.1028
     19 H3         -1.3620   -9.5047   -1.7582 H         1 <0>         0.1683
     20 C11        -3.3707   -8.7389   -1.6672 C.2       1 <0>         0.5427
     21 O2         -3.8561   -9.8135   -1.3856 O.2       1 <0>        -0.4760
     22 N5         -4.1185   -7.6380   -1.5054 N.am      1 <0>        -0.5562
     23 C12        -3.5888   -6.4176   -1.6953 C.2       1 <0>         0.7188
     24 O3         -4.3069   -5.4404   -1.6150 O.2       1 <0>        -0.5400
     25 C13        -5.5213   -7.7648   -1.1024 C.3       1 <0>         0.1322
     26 C14        -5.6170   -7.7459    0.4245 C.3       1 <0>        -0.1568
     27 C15        -7.0599   -7.8763    0.8390 C.2       1 <0>         0.5242
     28 O4         -7.9265   -7.9746   -0.0038 O.2       1 <0>        -0.5335
     29 N6         -7.3875   -7.8836    2.1463 N.am      1 <0>        -0.7321
     30 C16        -8.7903   -8.0104    2.5493 C.3       1 <0>         0.1237
     31 C17        -8.8859   -7.9915    4.0762 C.3       1 <0>        -0.0926
     32 C18       -10.3289   -8.1219    4.4908 C.ar      1 <0>        -0.0796
     33 C19       -11.1060   -6.9902    4.6535 C.ar      1 <0>        -0.1004
     34 C20       -12.4295   -7.1091    5.0337 C.ar      1 <0>        -0.1079
     35 C21       -12.9766   -8.3611    5.2514 C.ar      1 <0>        -0.0353
     36 C22       -12.1984   -9.4933    5.0884 C.ar      1 <0>        -0.1078
     37 C23       -10.8766   -9.3734    4.7027 C.ar      1 <0>        -0.1002
     38 Cl1       -14.6387   -8.5112    5.7295 Cl        1 <0>        -0.0682
     39 H4          1.0042    1.8801    0.0026 H         1 <0>         0.0822
     40 H5         -0.5455    1.8639   -0.8728 H         1 <0>         0.0822
     41 H6         -0.5286    1.8543    0.9071 H         1 <0>         0.0818
     42 H7         -2.1213   -0.4684    0.0099 H         1 <0>         0.1778
     43 H8         -0.9111   -2.4683   -2.0777 H         1 <0>         0.4107
     44 H9         -2.6701   -4.3649   -2.8336 H         1 <0>         0.1286
     45 H10        -1.0137   -4.9775   -3.0553 H         1 <0>         0.1251
     46 H11         0.4880   -6.4133   -3.0048 H         1 <0>         0.1514
     47 H12         0.0580   -7.6510   -5.1635 H         1 <0>         0.1881
     48 H13        -6.0937   -6.9328   -1.5126 H         1 <0>         0.1121
     49 H14        -5.9244   -8.7044   -1.4802 H         1 <0>         0.1084
     50 H15        -5.0445   -8.5779    0.8347 H         1 <0>         0.1007
     51 H16        -5.2139   -6.8063    0.8022 H         1 <0>         0.1014
     52 H17        -6.6944   -7.8050    2.8204 H         1 <0>         0.4023
     53 H18        -9.3627   -7.1784    2.1391 H         1 <0>         0.0720
     54 H19        -9.1933   -8.9500    2.1716 H         1 <0>         0.0723
     55 H20        -8.3135   -8.8235    4.4864 H         1 <0>         0.0834
     56 H21        -8.4829   -7.0519    4.4540 H         1 <0>         0.0831
     57 H22       -10.6787   -6.0129    4.4839 H         1 <0>         0.1329
     58 H23       -13.0364   -6.2249    5.1611 H         1 <0>         0.1349
     59 H24       -12.6248  -10.4709    5.2585 H         1 <0>         0.1351
     60 H25       -10.2703  -10.2574    4.5707 H         1 <0>         0.1332
@<TRIPOS>BOND
     1    1    2 1
     2    1   39 1
     3    1   40 1
     4    1   41 1
     5    2    7 1
     6    2    3 2
     7    3    4 1
     8    3   42 1
     9    4    5 1
    10    4    6 1
    11    4    8 1
    12    6    7 2
    13    8    9 am
    14    8   43 1
    15    9   10 2
    16    9   11 1
    17   11   12 1
    18   11   44 1
    19   11   45 1
    20   12   23 am
    21   12   13 1
    22   13   14 1
    23   13   18 1
    24   13   15 1
    25   15   16 2
    26   15   46 1
    27   16   17 1
    28   16   47 1
    29   17   18 1
    30   18   19 1
    31   18   20 1
    32   20   21 2
    33   20   22 am
    34   22   23 am
    35   22   25 1
    36   23   24 2
    37   25   26 1
    38   25   48 1
    39   25   49 1
    40   26   27 1
    41   26   50 1
    42   26   51 1
    43   27   28 2
    44   27   29 am
    45   29   30 1
    46   29   52 1
    47   30   31 1
    48   30   53 1
    49   30   54 1
    50   31   32 1
    51   31   55 1
    52   31   56 1
    53   32   37 ar
    54   32   33 ar
    55   33   34 ar
    56   33   57 1
    57   34   35 ar
    58   34   58 1
    59   35   36 ar
    60   35   38 1
    61   36   37 ar
    62   36   59 1
    63   37   60 1
