@<TRIPOS>MOLECULE
ZINC15023671
   35    38     0     0     0
SMALL
USER_CHARGES
methylBLAHone
@<TRIPOS>ATOM
      1 C1          1.1042    2.8484   -2.3215 C.3       1 <0>         0.0611
      2 N1          1.9163    2.0628   -1.3889 N.am      1 <0>        -0.6037
      3 C2          3.0236    1.4960   -1.8666 C.2       1 <0>         0.5252
      4 O1          3.3062    1.6632   -3.0341 O.2       1 <0>        -0.5417
      5 C3          3.9372    0.6577   -1.0156 C.3       1 <0>        -0.1303
      6 C4          3.6487    0.9429    0.4603 C.3       1 <0>        -0.0399
      7 H1          4.2077    0.2505    1.0898 H         1 <0>         0.1064
      8 C5          4.0356    2.3708    0.7896 C.ar      1 <0>        -0.1522
      9 C6          5.3772    2.6635    0.9683 C.ar      1 <0>        -0.0820
     10 C7          5.7749    3.9486    1.2809 C.ar      1 <0>        -0.1437
     11 C8          4.8315    4.9505    1.4174 C.ar      1 <0>        -0.0866
     12 C9          3.4935    4.6663    1.2361 C.ar      1 <0>        -0.1412
     13 C10         3.0897    3.3745    0.9163 C.ar      1 <0>         0.1245
     14 O2          1.7512    3.1467    0.7344 O.3       1 <0>        -0.3013
     15 C11         1.4511    1.9720   -0.0012 C.3       1 <0>         0.3213
     16 C12         2.1608    0.7983    0.7235 C.3       1 <0>        -0.1265
     17 H2          1.9612    0.8170    1.7949 H         1 <0>         0.1088
     18 C13         1.4951   -0.4223    0.0765 C.3       1 <0>        -0.1207
     19 C14         0.0021   -0.0041    0.0020 C.3       1 <0>        -0.1180
     20 C15        -0.0189    1.5434    0.0105 C.3       1 <0>        -0.1137
     21 H3          1.5694    2.8366   -3.3072 H         1 <0>         0.0948
     22 H4          0.1054    2.4169   -2.3860 H         1 <0>         0.0666
     23 H5          1.0338    3.8761   -1.9653 H         1 <0>         0.0622
     24 H6          4.9744    0.9075   -1.2390 H         1 <0>         0.1076
     25 H7          3.7624   -0.3978   -1.2237 H         1 <0>         0.1113
     26 H8          6.1162    1.8830    0.8627 H         1 <0>         0.1282
     27 H9          6.8227    4.1712    1.4184 H         1 <0>         0.1276
     28 H10         5.1418    5.9547    1.6661 H         1 <0>         0.1312
     29 H11         2.7575    5.4495    1.3425 H         1 <0>         0.1316
     30 H12         1.6175   -1.3058    0.7030 H         1 <0>         0.0826
     31 H13         1.8961   -0.6001   -0.9214 H         1 <0>         0.0741
     32 H14        -0.5381   -0.3903    0.8664 H         1 <0>         0.0781
     33 H15        -0.4470   -0.3792   -0.9176 H         1 <0>         0.0748
     34 H16        -0.5283    1.9186   -0.8771 H         1 <0>         0.0901
     35 H17        -0.5112    1.9090    0.9117 H         1 <0>         0.0932
@<TRIPOS>BOND
     1    1    2 1
     2    1   21 1
     3    1   22 1
     4    1   23 1
     5    2   15 1
     6    2    3 am
     7    3    4 2
     8    3    5 1
     9    5    6 1
    10    5   24 1
    11    5   25 1
    12    6    7 1
    13    6   16 1
    14    6    8 1
    15    8   13 ar
    16    8    9 ar
    17    9   10 ar
    18    9   26 1
    19   10   11 ar
    20   10   27 1
    21   11   12 ar
    22   11   28 1
    23   12   13 ar
    24   12   29 1
    25   13   14 1
    26   14   15 1
    27   15   20 1
    28   15   16 1
    29   16   17 1
    30   16   18 1
    31   18   19 1
    32   18   30 1
    33   18   31 1
    34   19   20 1
    35   19   32 1
    36   19   33 1
    37   20   34 1
    38   20   35 1
