@<TRIPOS>MOLECULE
ZINC63992439
   45    47     0     0     0
SMALL
USER_CHARGES

@<TRIPOS>ATOM
      1 C1         -0.0187    1.5258    0.0104 C.3       1 <0>        -0.1536
      2 C2          0.0021   -0.0041    0.0020 C.3       1 <0>         0.0550
      3 O1         -1.3386   -0.4987    0.0122 O.3       1 <0>        -0.3160
      4 C3         -1.4983   -1.8483    0.0064 C.ar      1 <0>         0.1326
      5 C4         -0.3894   -2.6824   -0.0028 C.ar      1 <0>        -0.2046
      6 C5         -0.5618   -4.0496   -0.0137 C.ar      1 <0>        -0.0782
      7 C6         -1.8369   -4.6035   -0.0122 C.ar      1 <0>        -0.1047
      8 C7         -2.9379   -3.7764    0.0066 C.ar      1 <0>        -0.0513
      9 C8         -2.7684   -2.3993    0.0156 C.ar      1 <0>        -0.1508
     10 C9         -4.3480   -4.3106    0.0383 C.3       1 <0>         0.1865
     11 N1         -4.3366   -5.7514   -0.2363 N.pl3     1 <0>        -0.6809
     12 C10        -3.3174   -6.5622    0.4503 C.3       1 <0>         0.1481
     13 C11        -1.9445   -6.1056   -0.0402 C.3       1 <0>        -0.0926
     14 C12        -5.2554   -6.3308   -1.1143 C.ar      1 <0>         0.3053
     15 C13        -4.9513   -6.4446   -2.4651 C.ar      1 <0>        -0.1447
     16 C14        -5.8617   -7.0184   -3.3303 C.ar      1 <0>         0.0318
     17 C15        -7.0753   -7.4796   -2.8535 C.ar      1 <0>        -0.6883
     18 C16        -7.3814   -7.3675   -1.5098 C.ar      1 <0>         0.0531
     19 C17        -6.4729   -6.7998   -0.6379 C.ar      1 <0>        -0.0849
     20 N2         -6.7989   -6.6858    0.8013 N.pl3     1 <0>         0.0360
     21 O2         -7.8588   -7.0942    1.2152 O.2       1 <0>        -0.1679
     22 O3         -6.0052   -6.1843    1.5629 O.3       1 <0>        -0.1238
     23 S1         -8.2342   -8.2111   -3.9610 S.o2      1 <0>         2.7069
     24 O4         -9.5149   -8.0666   -3.3624 O.2       1 <0>        -0.9500
     25 O5         -7.9361   -7.7035   -5.2543 O.2       1 <0>        -0.9482
     26 N3         -7.9124   -9.8350   -4.0041 N.pl3     1 <0>        -1.2448
     27 H1          1.0039    1.9031    0.0027 H         1 <0>         0.0795
     28 H2         -0.5459    1.8868   -0.8726 H         1 <0>         0.0667
     29 H3         -0.5289    1.8773    0.9072 H         1 <0>         0.0673
     30 H4          0.5123   -0.3556   -0.8948 H         1 <0>         0.0617
     31 H5          0.5293   -0.3651    0.8851 H         1 <0>         0.0624
     32 H6          0.6052   -2.2616   -0.0019 H         1 <0>         0.1278
     33 H7          0.3024   -4.6973   -0.0239 H         1 <0>         0.1244
     34 H8         -3.6334   -1.7526    0.0261 H         1 <0>         0.1306
     35 H9         -4.7813   -4.1324    1.0225 H         1 <0>         0.0846
     36 H10        -4.9457   -3.8019   -0.7180 H         1 <0>         0.0790
     37 H11        -3.3922   -6.4136    1.5275 H         1 <0>         0.0787
     38 H12        -3.4624   -7.6159    0.2119 H         1 <0>         0.0711
     39 H13        -1.7936   -6.4568   -1.0610 H         1 <0>         0.0741
     40 H14        -1.1742   -6.5321    0.6023 H         1 <0>         0.0832
     41 H15        -4.0039   -6.0844   -2.8382 H         1 <0>         0.1588
     42 H16        -5.6261   -7.1068   -4.3805 H         1 <0>         0.1637
     43 H17        -8.3303   -7.7280   -1.1409 H         1 <0>         0.1722
     44 H18        -8.6291  -10.4672   -4.1705 H         1 <0>         0.4261
     45 H19        -7.0073  -10.1540   -3.8630 H         1 <0>         0.4182
@<TRIPOS>BOND
     1    1    2 1
     2    1   27 1
     3    1   28 1
     4    1   29 1
     5    2    3 1
     6    2   30 1
     7    2   31 1
     8    3    4 1
     9    4    9 ar
    10    4    5 ar
    11    5    6 ar
    12    5   32 1
    13    6    7 ar
    14    6   33 1
    15    7   13 1
    16    7    8 ar
    17    8    9 ar
    18    8   10 1
    19    9   34 1
    20   10   11 1
    21   10   35 1
    22   10   36 1
    23   11   12 1
    24   11   14 1
    25   12   13 1
    26   12   37 1
    27   12   38 1
    28   13   39 1
    29   13   40 1
    30   14   19 ar
    31   14   15 ar
    32   15   16 ar
    33   15   41 1
    34   16   17 ar
    35   16   42 1
    36   17   18 ar
    37   17   23 1
    38   18   19 ar
    39   18   43 1
    40   19   20 1
    41   20   21 2
    42   20   22 1
    43   23   24 2
    44   23   25 2
    45   23   26 1
    46   26   44 1
    47   26   45 1
