@<TRIPOS>MOLECULE
ZINC33595692
   50    53     0     0     0
SMALL
USER_CHARGES

@<TRIPOS>ATOM
      1 C1         -0.2182    1.6384   -0.4006 C.3       1 <0>        -0.1566
      2 C2         -0.0976    0.1199   -0.2568 C.3       1 <0>        -0.0032
      3 C3         -1.4644   -0.4957    0.1086 C.3       1 <0>        -0.1124
      4 H1         -2.0177   -0.8381   -0.7658 H         1 <0>         0.1808
      5 C4         -1.1320   -1.6438    1.0991 C.3       1 <0>        -0.1274
      6 H2         -1.5134   -2.6104    0.7701 H         1 <0>         0.1771
      7 C5          0.4056   -1.6240    1.2263 C.3       1 <0>         0.1230
      8 H3          0.8531   -2.3367    0.5336 H         1 <0>         0.1840
      9 N1          0.7879   -0.2230    0.8851 N.4       1 <0>        -0.5023
     10 C6          0.8194   -1.9377    2.6410 C.ar      1 <0>        -0.1640
     11 C7          1.0625   -0.9117    3.5339 C.ar      1 <0>        -0.0917
     12 C8          1.4426   -1.1988    4.8317 C.ar      1 <0>        -0.1354
     13 C9          1.5802   -2.5129    5.2397 C.ar      1 <0>        -0.0544
     14 C10         1.3379   -3.5422    4.3511 C.ar      1 <0>        -0.1906
     15 C11         0.9511   -3.2567    3.0494 C.ar      1 <0>         0.1788
     16 O1          0.7068   -4.2677    2.1748 O.3       1 <0>        -0.3109
     17 C12         0.8623   -5.6011    2.6645 C.3       1 <0>         0.0242
     18 C13        -1.7587   -1.1799    2.3947 C.2       1 <0>         0.5242
     19 O2         -1.7337   -1.7888    3.4427 O.2       1 <0>        -0.4240
     20 N2         -2.3446    0.0079    2.2043 N.am      1 <0>        -0.5367
     21 C14        -2.2474    0.4918    0.9443 C.2       1 <0>         0.5256
     22 O3         -2.7052    1.5405    0.5440 O.2       1 <0>        -0.4241
     23 C15        -3.0136    0.6960    3.2263 C.ar      1 <0>         0.1112
     24 C16        -2.5046    1.8953    3.7063 C.ar      1 <0>        -0.0540
     25 C17        -3.1658    2.5708    4.7132 C.ar      1 <0>        -0.0994
     26 C18        -4.3338    2.0538    5.2434 C.ar      1 <0>        -0.0406
     27 C19        -4.8428    0.8596    4.7678 C.ar      1 <0>        -0.0340
     28 C20        -4.1891    0.1825    3.7565 C.ar      1 <0>        -0.0370
     29 N3         -6.0928    0.3093    5.3383 N.pl3     1 <0>         0.0303
     30 O4         -6.6682    0.9041    6.2196 O.2       1 <0>        -0.1424
     31 O5         -6.5385   -0.7350    4.9229 O.3       1 <0>        -0.1495
     32 C21         0.4303   -0.4868   -1.5313 C.2       1 <0>         0.5105
     33 O6          1.4816   -1.1043   -1.5227 O.co2     1 <0>        -0.6561
     34 O7         -0.1939   -0.3603   -2.5709 O.co2     1 <0>        -0.6175
     35 H4          0.7651    2.0635   -0.6015 H         1 <0>         0.0844
     36 H5         -0.8909    1.8729   -1.2256 H         1 <0>         0.1195
     37 H6         -0.6148    2.0604    0.5228 H         1 <0>         0.0643
     38 H7          1.7564   -0.1846    0.6046 H         1 <0>         0.4439
     39 H8          0.9557    0.1154    3.2177 H         1 <0>         0.1119
     40 H9          1.6328   -0.3954    5.5280 H         1 <0>         0.1326
     41 H10         1.8776   -2.7347    6.2540 H         1 <0>         0.1349
     42 H11         1.4455   -4.5683    4.6702 H         1 <0>         0.1400
     43 H12         1.8886   -5.7470    3.0015 H         1 <0>         0.0617
     44 H13         0.1795   -5.7639    3.4984 H         1 <0>         0.0615
     45 H14         0.6375   -6.3096    1.8672 H         1 <0>         0.1095
     46 H15        -1.5923    2.2994    3.2929 H         1 <0>         0.1442
     47 H16        -2.7701    3.5036    5.0871 H         1 <0>         0.1616
     48 H17        -4.8491    2.5838    6.0307 H         1 <0>         0.1645
     49 H18        -4.5898   -0.7479    3.3821 H         1 <0>         0.1582
     50 H19         0.6188    0.3984    1.6618 H         1 <0>         0.4014
@<TRIPOS>BOND
     1    1    2 1
     2    1   35 1
     3    1   36 1
     4    1   37 1
     5    2    9 1
     6    2    3 1
     7    2   32 1
     8    3    4 1
     9    3   21 1
    10    3    5 1
    11    5    6 1
    12    5    7 1
    13    5   18 1
    14    7    8 1
    15    7    9 1
    16    7   10 1
    17    9   38 1
    18    9   50 1
    19   10   15 ar
    20   10   11 ar
    21   11   12 ar
    22   11   39 1
    23   12   13 ar
    24   12   40 1
    25   13   14 ar
    26   13   41 1
    27   14   15 ar
    28   14   42 1
    29   15   16 1
    30   16   17 1
    31   17   43 1
    32   17   44 1
    33   17   45 1
    34   18   19 2
    35   18   20 am
    36   20   21 am
    37   20   23 1
    38   21   22 2
    39   23   28 ar
    40   23   24 ar
    41   24   25 ar
    42   24   46 1
    43   25   26 ar
    44   25   47 1
    45   26   27 ar
    46   26   48 1
    47   27   28 ar
    48   27   29 1
    49   28   49 1
    50   29   30 2
    51   29   31 1
    52   32   33 2
    53   32   34 1
