@<TRIPOS>MOLECULE
ZINC64758994
   58    62     0     0     0
SMALL
USER_CHARGES

@<TRIPOS>ATOM
      1 C1         -1.8891    0.6115    0.4681 C.3       1 <0>        -0.1079
      2 C2         -0.8243   -0.4241    0.2138 C.ar      1 <0>        -0.0552
      3 C3         -0.8421   -1.1623   -0.9522 C.ar      1 <0>        -0.1188
      4 C4          0.1346   -2.1132   -1.1870 C.ar      1 <0>        -0.1128
      5 C5          1.1347   -2.3303   -0.2557 C.ar      1 <0>        -0.1232
      6 C6          1.1633   -1.5982    0.9133 C.ar      1 <0>        -0.1116
      7 C7          0.1842   -0.6344    1.1533 C.ar      1 <0>        -0.0013
      8 C8          0.2125    0.1592    2.4045 C.2       1 <0>         0.0311
      9 C9          0.3873   -0.3432    3.6821 C.2       1 <0>         0.2785
     10 N1          0.3481    0.7192    4.5303 N.pl3     1 <0>        -0.3738
     11 C10         0.4604    0.8456    5.8918 C.2       1 <0>        -0.0062
     12 C11         0.3771    2.0658    6.4584 C.2       1 <0>         0.0412
     13 N2          0.1858    3.1634    5.7192 N.2       1 <0>        -0.4755
     14 C12         0.0718    3.0997    4.4144 C.2       1 <0>         0.2149
     15 C13         0.1511    1.8509    3.7652 C.2       1 <0>         0.1328
     16 N3          0.0788    1.4918    2.4963 N.2       1 <0>        -0.4112
     17 N4          0.5679   -1.6788    4.0318 N.pl3     1 <0>        -0.7220
     18 C14         0.6757   -2.0585    5.4426 C.3       1 <0>         0.1329
     19 C15         0.8680   -3.5726    5.5500 C.3       1 <0>        -0.1530
     20 C16         0.9789   -3.9632    7.0013 C.2       1 <0>         0.5238
     21 O1          0.9108   -3.1141    7.8647 O.2       1 <0>        -0.5370
     22 N5          1.1537   -5.2560    7.3398 N.am      1 <0>        -0.6111
     23 C17         1.2441   -6.2952    6.3050 C.3       1 <0>         0.1109
     24 C18         0.2108   -7.3847    6.6088 C.3       1 <0>        -0.1364
     25 C19         0.4171   -7.8944    8.0365 C.3       1 <0>         0.2583
     26 C20         0.2241   -6.7486    9.0317 C.3       1 <0>        -0.1518
     27 C21         1.2635   -5.6523    8.7503 C.3       1 <0>         0.1192
     28 O2         -0.5259   -8.9372    8.3151 O.3       1 <0>        -0.3765
     29 C22         0.2296  -10.1227    8.6368 C.3       1 <0>         0.0198
     30 C23         1.6080   -9.5557    9.0595 C.3       1 <0>         0.0148
     31 O3          1.7466   -8.4232    8.1679 O.3       1 <0>        -0.3675
     32 H1         -1.5335    1.5872    0.1370 H         1 <0>         0.0786
     33 H2         -2.7917    0.3475   -0.0831 H         1 <0>         0.0604
     34 H3         -2.1124    0.6488    1.5343 H         1 <0>         0.0643
     35 H4         -1.6204   -0.9975   -1.6825 H         1 <0>         0.1250
     36 H5          0.1164   -2.6887   -2.1007 H         1 <0>         0.1233
     37 H6          1.8942   -3.0746   -0.4442 H         1 <0>         0.1241
     38 H7          1.9442   -1.7688    1.6396 H         1 <0>         0.1197
     39 H8          0.6145   -0.0287    6.5068 H         1 <0>         0.1720
     40 H9          0.4663    2.1587    7.5307 H         1 <0>         0.1767
     41 H10        -0.0826    4.0006    3.8392 H         1 <0>         0.1884
     42 H11         0.6223   -2.3579    3.3413 H         1 <0>         0.4194
     43 H12         1.5297   -1.5511    5.8912 H         1 <0>         0.0695
     44 H13        -0.2351   -1.7698    5.9672 H         1 <0>         0.0693
     45 H14         0.0139   -4.0800    5.1014 H         1 <0>         0.1058
     46 H15         1.7788   -3.8613    5.0254 H         1 <0>         0.1059
     47 H16         1.0372   -5.8574    5.3285 H         1 <0>         0.0920
     48 H17         2.2441   -6.7287    6.3089 H         1 <0>         0.0837
     49 H18        -0.7930   -6.9712    6.5116 H         1 <0>         0.0880
     50 H19         0.3346   -8.2092    5.9067 H         1 <0>         0.0905
     51 H20        -0.7798   -6.3381    8.9237 H         1 <0>         0.0853
     52 H21         0.3574   -7.1224   10.0470 H         1 <0>         0.0845
     53 H22         2.2651   -6.0356    8.9452 H         1 <0>         0.0784
     54 H23         1.0694   -4.7902    9.3883 H         1 <0>         0.0996
     55 H24        -0.2342  -10.6630    9.4620 H         1 <0>         0.1023
     56 H25         0.3293  -10.7651    7.7619 H         1 <0>         0.0787
     57 H26         1.5946   -9.2333   10.1007 H         1 <0>         0.0775
     58 H27         2.3992  -10.2858    8.8889 H         1 <0>         0.1118
@<TRIPOS>BOND
     1    1    2 1
     2    1   32 1
     3    1   33 1
     4    1   34 1
     5    2    7 ar
     6    2    3 ar
     7    3    4 ar
     8    3   35 1
     9    4    5 ar
    10    4   36 1
    11    5    6 ar
    12    5   37 1
    13    6    7 ar
    14    6   38 1
    15    7    8 1
    16    8   16 1
    17    8    9 2
    18    9   10 1
    19    9   17 1
    20   10   15 1
    21   10   11 1
    22   11   12 2
    23   11   39 1
    24   12   13 1
    25   12   40 1
    26   13   14 2
    27   14   15 1
    28   14   41 1
    29   15   16 2
    30   17   18 1
    31   17   42 1
    32   18   19 1
    33   18   43 1
    34   18   44 1
    35   19   20 1
    36   19   45 1
    37   19   46 1
    38   20   21 2
    39   20   22 am
    40   22   27 1
    41   22   23 1
    42   23   24 1
    43   23   47 1
    44   23   48 1
    45   24   25 1
    46   24   49 1
    47   24   50 1
    48   25   31 1
    49   25   26 1
    50   25   28 1
    51   26   27 1
    52   26   51 1
    53   26   52 1
    54   27   53 1
    55   27   54 1
    56   28   29 1
    57   29   30 1
    58   29   55 1
    59   29   56 1
    60   30   31 1
    61   30   57 1
    62   30   58 1
