@<TRIPOS>MOLECULE
ZINC21451575
   44    46     0     0     0
SMALL
USER_CHARGES
(2S)-2-[[5-(4-chlorophenyl)-4H-1,2,4-triazol-3-yl]sulfanyl]-N-[4-nitro-2-(trifluoromethyl)phenyl]propanamide
@<TRIPOS>ATOM
      1 C1         -0.7441    1.5960    1.2690 C.3       1 <0>        -0.1636
      2 C2         -0.0215    1.0945    0.0171 C.3       1 <0>        -0.1608
      3 H1         -0.1920    0.0078    0.0060 H         1 <0>         0.1270
      4 C3         -0.7434    1.5868   -1.2107 C.2       1 <0>         0.5468
      5 O1         -0.3254    2.5527   -1.8135 O.2       1 <0>        -0.4779
      6 N1         -1.8536    0.9539   -1.6389 N.am      1 <0>        -0.6812
      7 C4         -2.5890    1.4773   -2.7081 C.ar      1 <0>         0.2609
      8 C5         -2.5267    2.8343   -2.9974 C.ar      1 <0>        -0.1359
      9 C6         -3.2533    3.3476   -4.0535 C.ar      1 <0>         0.0041
     10 C7         -4.0425    2.5120   -4.8228 C.ar      1 <0>        -0.0672
     11 C8         -4.1067    1.1608   -4.5374 C.ar      1 <0>         0.0193
     12 C9         -3.3781    0.6402   -3.4856 C.ar      1 <0>        -0.2235
     13 C10        -3.4442   -0.8338   -3.1787 C.3       1 <0>         0.5163
     14 F1         -4.2971   -1.4625   -4.0921 F         1 <0>        -0.1616
     15 F2         -2.1638   -1.3887   -3.2780 F         1 <0>        -0.1666
     16 F3         -3.9331   -1.0184   -1.8809 F         1 <0>        -0.1726
     17 N2         -4.8197    3.0655   -5.9545 N.pl3     1 <0>         0.0288
     18 O2         -4.7638    4.2557   -6.2073 O.2       1 <0>        -0.1471
     19 O3         -5.5151    2.3309   -6.6328 O.3       1 <0>        -0.1508
     20 S1          1.6770    1.7198    0.0096 S.3       1 <0>         0.1565
     21 C11         2.3139    0.8924    1.4289 C.2       1 <0>         0.1693
     22 N3          3.5845    0.9887    1.9207 N.2       1 <0>        -0.4678
     23 H2          0.6088   -0.2690    2.1615 H         1 <0>         0.4743
     24 C12         3.6164    0.1737    3.0287 C.2       1 <0>         0.2409
     25 N4          2.4238   -0.3617    3.1476 N.2       1 <0>        -0.3138
     26 N5          1.6549    0.0675    2.2117 N.pl3     1 <0>        -0.3917
     27 C13         4.7752   -0.0557    3.9176 C.ar      1 <0>        -0.0066
     28 C14         5.9936    0.5733    3.6569 C.ar      1 <0>        -0.0656
     29 C15         7.0700    0.3587    4.4923 C.ar      1 <0>        -0.1124
     30 C16         6.9463   -0.4863    5.5824 C.ar      1 <0>        -0.0213
     31 C17         5.7415   -1.1173    5.8431 C.ar      1 <0>        -0.1132
     32 C18         4.6568   -0.9068    5.0176 C.ar      1 <0>        -0.0720
     33 Cl1         8.3072   -0.7562    6.6259 Cl        1 <0>        -0.0635
     34 H3         -0.2171    1.2366    2.1652 H         1 <0>         0.0734
     35 H4         -1.7764    1.2160    1.2735 H         1 <0>         0.0867
     36 H5         -0.7583    2.6959    1.2683 H         1 <0>         0.0941
     37 H6         -2.1816    0.0259   -1.1479 H         1 <0>         0.4466
     38 H7         -1.9104    3.4872   -2.3973 H         1 <0>         0.1802
     39 H8         -3.2050    4.4027   -4.2793 H         1 <0>         0.1705
     40 H9         -4.7236    0.5108   -5.1402 H         1 <0>         0.1745
     41 H10         6.0924    1.2297    2.8049 H         1 <0>         0.1446
     42 H11         8.0123    0.8476    4.2936 H         1 <0>         0.1411
     43 H12         5.6512   -1.7759    6.6943 H         1 <0>         0.1403
     44 H13         3.7177   -1.3997    5.2217 H         1 <0>         0.1408
@<TRIPOS>BOND
     1    1    2 1
     2    1   34 1
     3    1   35 1
     4    1   36 1
     5    2    3 1
     6    2    4 1
     7    2   20 1
     8    4    5 2
     9    4    6 am
    10    6    7 1
    11    6   37 1
    12    7   12 ar
    13    7    8 ar
    14    8    9 ar
    15    8   38 1
    16    9   10 ar
    17    9   39 1
    18   10   11 ar
    19   10   17 1
    20   11   12 ar
    21   11   40 1
    22   12   13 1
    23   13   14 1
    24   13   15 1
    25   13   16 1
    26   17   18 2
    27   17   19 1
    28   20   21 1
    29   21   22 2
    30   21   26 1
    31   22   24 1
    32   23   26 1
    33   24   27 1
    34   24   25 2
    35   25   26 1
    36   27   32 ar
    37   27   28 ar
    38   28   29 ar
    39   28   41 1
    40   29   30 ar
    41   29   42 1
    42   30   31 ar
    43   30   33 1
    44   31   32 ar
    45   31   43 1
    46   32   44 1
