@<TRIPOS>MOLECULE
ZINC00092873
   33    34     0     0     0
SMALL
USER_CHARGES
2-chloro-6-fluoro-N-[(6-methylpyridazin-3-yl)aminocarbamoyl]benzamide
@<TRIPOS>ATOM
      1 C1         -4.7811    3.8734    0.0456 C.3       1 <0>        -0.0967
      2 C2         -3.5234    3.0433    0.0352 C.ar      1 <0>         0.0259
      3 C3         -3.6066    1.6576    0.0281 C.ar      1 <0>        -0.0689
      4 C4         -2.4249    0.9342    0.0186 C.ar      1 <0>        -0.1645
      5 C5         -1.2246    1.6446    0.0168 C.ar      1 <0>         0.3344
      6 N1         -1.2462    2.9693    0.0296 N.ar      1 <0>        -0.2990
      7 N2         -2.3448    3.6329    0.0324 N.ar      1 <0>        -0.1966
      8 N3         -0.0111    0.9658    0.0074 N.pl3     1 <0>        -0.5221
      9 N4          1.1926    1.6828   -0.0003 N.am      1 <0>        -0.5111
     10 C6          2.3687    1.0248   -0.0151 C.2       1 <0>         0.7062
     11 O1          3.4130    1.6468   -0.0217 O.2       1 <0>        -0.5047
     12 N5          2.3870   -0.3228   -0.0225 N.am      1 <0>        -0.6824
     13 C7          3.5632   -0.9807   -0.0372 C.2       1 <0>         0.5760
     14 O2          4.6074   -0.3587   -0.0439 O.2       1 <0>        -0.4295
     15 C8          3.5832   -2.4559   -0.0453 C.ar      1 <0>        -0.1674
     16 C9          3.6043   -3.1658    1.1603 C.ar      1 <0>         0.1514
     17 C10         3.6225   -4.5479    1.1433 C.ar      1 <0>        -0.1465
     18 C11         3.6198   -5.2279   -0.0609 C.ar      1 <0>        -0.0520
     19 C12         3.5990   -4.5326   -1.2569 C.ar      1 <0>        -0.1178
     20 C13         3.5753   -3.1522   -1.2575 C.ar      1 <0>         0.0207
     21 Cl1         3.5425   -2.2832   -2.7600 Cl        1 <0>        -0.0337
     22 F1          3.6073   -2.5025    2.3373 F         1 <0>        -0.1192
     23 H1         -5.0794    4.0680    1.0758 H         1 <0>         0.0816
     24 H2         -4.5964    4.8191   -0.4640 H         1 <0>         0.0814
     25 H3         -5.5770    3.3336   -0.4674 H         1 <0>         0.0784
     26 H4         -4.5642    1.1582    0.0296 H         1 <0>         0.1562
     27 H5         -2.4329   -0.1458    0.0125 H         1 <0>         0.1525
     28 H6          0.0021   -0.0041    0.0020 H         1 <0>         0.4297
     29 H7          1.1794    2.6527    0.0050 H         1 <0>         0.4517
     30 H8          1.5537   -0.8192   -0.0172 H         1 <0>         0.4050
     31 H9          3.6391   -5.0979    2.0725 H         1 <0>         0.1545
     32 H10         3.6337   -6.3078   -0.0678 H         1 <0>         0.1538
     33 H11         3.5971   -5.0715   -2.1928 H         1 <0>         0.1527
@<TRIPOS>BOND
     1    1    2 1
     2    1   23 1
     3    1   24 1
     4    1   25 1
     5    2    7 ar
     6    2    3 ar
     7    3    4 ar
     8    3   26 1
     9    4    5 ar
    10    4   27 1
    11    5    6 ar
    12    5    8 1
    13    6    7 ar
    14    8    9 1
    15    8   28 1
    16    9   10 am
    17    9   29 1
    18   10   11 2
    19   10   12 am
    20   12   13 am
    21   12   30 1
    22   13   14 2
    23   13   15 1
    24   15   20 ar
    25   15   16 ar
    26   16   17 ar
    27   16   22 1
    28   17   18 ar
    29   17   31 1
    30   18   19 ar
    31   18   32 1
    32   19   20 ar
    33   19   33 1
    34   20   21 1
