@<TRIPOS>MOLECULE
ZINC09909248
   60    62     0     0     0
SMALL
USER_CHARGES
2-[methyl-[(4-morpholinophenyl)carbamoylmethyl]amino]-N-(4-nitrophenyl)-propanamide
@<TRIPOS>ATOM
      1 C1          0.9377    3.7377    1.2691 C.3       1 <0>        -0.1823
      2 C2         -0.3792    2.9845    1.4674 C.3       1 <0>         0.0115
      3 H1         -1.0988    3.3064    0.7146 H         1 <0>         0.1749
      4 C3         -0.9241    3.2786    2.8413 C.2       1 <0>         0.5068
      5 O1         -1.0221    2.3876    3.6584 O.2       1 <0>        -0.5025
      6 N1         -1.3026    4.5317    3.1622 N.am      1 <0>        -0.6455
      7 C4         -1.7156    4.8255    4.4664 C.ar      1 <0>         0.1717
      8 C5         -2.4434    3.8921    5.1927 C.ar      1 <0>        -0.1151
      9 C6         -2.8442    4.1828    6.4821 C.ar      1 <0>        -0.0338
     10 C7         -2.5322    5.4065    7.0454 C.ar      1 <0>        -0.0428
     11 C8         -1.8125    6.3403    6.3228 C.ar      1 <0>        -0.0322
     12 C9         -1.4034    6.0534    5.0352 C.ar      1 <0>        -0.1293
     13 N2         -2.9690    5.7173    8.4251 N.pl3     1 <0>         0.0208
     14 O2         -2.6945    6.7946    8.9227 O.2       1 <0>        -0.1457
     15 O3         -3.6030    4.8957    9.0628 O.3       1 <0>        -0.1475
     16 C10         0.0878    1.1736   -0.0704 C.3       1 <0>        -0.0536
     17 C11         0.9768    1.1097    2.1809 C.3       1 <0>        -0.0362
     18 C12         1.0346   -0.3959    2.2092 C.2       1 <0>         0.5059
     19 O4          0.2230   -1.0458    1.5846 O.2       1 <0>        -0.5151
     20 N3          1.9881   -1.0203    2.9286 N.am      1 <0>        -0.6396
     21 C13         2.0990   -2.4166    2.8826 C.ar      1 <0>         0.0867
     22 C14         0.9575   -3.2006    2.7801 C.ar      1 <0>        -0.0806
     23 C15         1.0668   -4.5759    2.7299 C.ar      1 <0>        -0.1549
     24 C16         2.3180   -5.1758    2.7922 C.ar      1 <0>         0.1194
     25 C17         3.4592   -4.3916    2.9001 C.ar      1 <0>        -0.1211
     26 C18         3.3498   -3.0161    2.9453 C.ar      1 <0>        -0.1008
     27 N4          2.4286   -6.5695    2.7459 N.pl3     1 <0>        -0.4881
     28 C19         3.3038   -6.9922    1.6428 C.3       1 <0>         0.0205
     29 C20         3.4445   -8.5165    1.6654 C.3       1 <0>         0.0596
     30 O5          2.1463   -9.1113    1.5850 O.3       1 <0>        -0.3800
     31 C21         1.2680   -8.7219    2.6443 C.3       1 <0>         0.0603
     32 C22         1.1053   -7.1996    2.6316 C.3       1 <0>         0.0114
     33 H2          1.3319    3.5250    0.2754 H         1 <0>         0.1047
     34 H3          0.7623    4.8088    1.3688 H         1 <0>         0.1147
     35 H4          1.6573    3.4158    2.0219 H         1 <0>         0.0911
     36 H5         -1.2886    5.2299    2.4890 H         1 <0>         0.4272
     37 H6         -2.6915    2.9381    4.7516 H         1 <0>         0.1593
     38 H7         -3.4061    3.4554    7.0492 H         1 <0>         0.1634
     39 H8         -1.5703    7.2951    6.7655 H         1 <0>         0.1659
     40 H9         -0.8410    6.7830    4.4714 H         1 <0>         0.1559
     41 H10         0.2617    0.0998   -0.1411 H         1 <0>         0.1436
     42 H11         0.9596    1.7084   -0.4475 H         1 <0>         0.1261
     43 H12        -0.7867    1.4399   -0.6641 H         1 <0>         0.1295
     44 H13         1.9103    1.5016    1.7770 H         1 <0>         0.1641
     45 H14         0.8322    1.4869    3.1933 H         1 <0>         0.1675
     46 H15         2.5976   -0.5032    3.4781 H         1 <0>         0.4186
     47 H16        -0.0156   -2.7343    2.7358 H         1 <0>         0.1377
     48 H17         0.1793   -5.1855    2.6457 H         1 <0>         0.1354
     49 H18         4.4322   -4.8579    2.9489 H         1 <0>         0.1363
     50 H19         4.2373   -2.4063    3.0292 H         1 <0>         0.1323
     51 H20         2.8686   -6.6809    0.6931 H         1 <0>         0.0560
     52 H21         4.2858   -6.5342    1.7614 H         1 <0>         0.0949
     53 H22         3.9287   -8.8236    2.5924 H         1 <0>         0.0651
     54 H23         4.0462   -8.8398    0.8160 H         1 <0>         0.1068
     55 H24         1.6889   -9.0349    3.5998 H         1 <0>         0.0648
     56 H25         0.2953   -9.1931    2.5033 H         1 <0>         0.1066
     57 H26         0.4824   -6.8931    3.4720 H         1 <0>         0.0955
     58 H27         0.6346   -6.8910    1.6981 H         1 <0>         0.0586
     59 N5         -0.1663    1.5272    1.3420 N.4       1 <0>        -0.3681
     60 H28        -1.0107    1.0382    1.6616 H         1 <0>         0.4440
@<TRIPOS>BOND
     1    1    2 1
     2    1   33 1
     3    1   34 1
     4    1   35 1
     5    2    3 1
     6    2    4 1
     7    2   59 1
     8    4    5 2
     9    4    6 am
    10    6    7 1
    11    6   36 1
    12    7   12 ar
    13    7    8 ar
    14    8    9 ar
    15    8   37 1
    16    9   10 ar
    17    9   38 1
    18   10   11 ar
    19   10   13 1
    20   11   12 ar
    21   11   39 1
    22   12   40 1
    23   13   14 2
    24   13   15 1
    25   16   41 1
    26   16   42 1
    27   16   43 1
    28   16   59 1
    29   17   18 1
    30   17   44 1
    31   17   45 1
    32   17   59 1
    33   18   19 2
    34   18   20 am
    35   20   21 1
    36   20   46 1
    37   21   26 ar
    38   21   22 ar
    39   22   23 ar
    40   22   47 1
    41   23   24 ar
    42   23   48 1
    43   24   25 ar
    44   24   27 1
    45   25   26 ar
    46   25   49 1
    47   26   50 1
    48   27   32 1
    49   27   28 1
    50   28   29 1
    51   28   51 1
    52   28   52 1
    53   29   30 1
    54   29   53 1
    55   29   54 1
    56   30   31 1
    57   31   32 1
    58   31   55 1
    59   31   56 1
    60   32   57 1
    61   32   58 1
    62   59   60 1
