@<TRIPOS>MOLECULE
ZINC13729205
   43    45     0     0     0
SMALL
USER_CHARGES
N'-(2,1,3-benzoxadiazol-4-yl)-N-[(1-ethyl-3,5-dimethyl-pyrazol-4-yl)methyl]oxamide
@<TRIPOS>ATOM
      1 C1         -1.5392   -1.2034   -1.4426 C.3       1 <0>        -0.1714
      2 C2         -1.1281   -0.9009   -0.0002 C.3       1 <0>         0.1258
      3 N1          0.0423   -0.0198   -0.0006 N.pl3     1 <0>        -0.3649
      4 C3          0.0203    1.3295    0.0034 C.2       1 <0>         0.1167
      5 C4          1.3021    1.7630    0.0009 C.2       1 <0>        -0.2728
      6 C5          2.1361    0.6401   -0.0048 C.2       1 <0>         0.0955
      7 N2          1.3820   -0.4291   -0.0057 N.2       1 <0>        -0.2919
      8 C6          3.6430    0.6586   -0.0091 C.3       1 <0>        -0.0777
      9 C7          1.7517    3.2013    0.0039 C.3       1 <0>         0.2019
     10 N3          1.9014    3.6634    1.3860 N.am      1 <0>        -0.6888
     11 C8          2.2974    4.9274    1.6348 C.2       1 <0>         0.5102
     12 O1          2.5300    5.6828    0.7139 O.2       1 <0>        -0.5113
     13 C9          2.4500    5.3983    3.0435 C.2       1 <0>         0.5108
     14 O2          2.2174    4.6427    3.9646 O.2       1 <0>        -0.4918
     15 N4          2.8460    6.6623    3.2923 N.am      1 <0>        -0.6361
     16 C10         2.8982    7.1301    4.6020 C.ar      1 <0>         0.1912
     17 C11         3.2518    6.2981    5.6260 C.ar      1 <0>        -0.0990
     18 C12         3.3119    6.7441    6.9482 C.ar      1 <0>        -0.0590
     19 C13         3.0264    8.0208    7.3044 C.ar      1 <0>        -0.0851
     20 C14         2.6510    8.9593    6.3257 C.ar      1 <0>         0.0407
     21 C15         2.5825    8.5199    4.9090 C.ar      1 <0>         0.0027
     22 N5          2.2103    9.6053    4.2844 N.2       1 <0>        -0.3336
     23 O3          2.0833   10.5048    5.0915 O.3       1 <0>         0.3755
     24 N6          2.3115   10.2229    6.2511 N.2       1 <0>        -0.3401
     25 C16        -1.2113    2.1980    0.0039 C.3       1 <0>        -0.1009
     26 H1         -0.7150   -1.6944   -1.9600 H         1 <0>         0.0666
     27 H2         -2.4100   -1.8590   -1.4423 H         1 <0>         0.0798
     28 H3         -1.7855   -0.2724   -1.9531 H         1 <0>         0.0614
     29 H4         -0.8818   -1.8320    0.5102 H         1 <0>         0.0982
     30 H5         -1.9523   -0.4099    0.5171 H         1 <0>         0.0945
     31 H6          4.0033    0.6657   -1.0378 H         1 <0>         0.0803
     32 H7          3.9968    1.5517    0.5059 H         1 <0>         0.0771
     33 H8          4.0187   -0.2281    0.5014 H         1 <0>         0.0758
     34 H9          2.7080    3.2841   -0.5125 H         1 <0>         0.0845
     35 H10         1.0091    3.8151   -0.5060 H         1 <0>         0.0803
     36 H11         1.7155    3.0596    2.1221 H         1 <0>         0.4141
     37 H12         3.0947    7.2459    2.5586 H         1 <0>         0.4301
     38 H13         3.4910    5.2678    5.4074 H         1 <0>         0.1620
     39 H14         3.5978    6.0432    7.7185 H         1 <0>         0.1505
     40 H15         3.0868    8.3176    8.3411 H         1 <0>         0.1497
     41 H16        -1.5098    2.4046    1.0317 H         1 <0>         0.0844
     42 H17        -0.9946    3.1361   -0.5071 H         1 <0>         0.0889
     43 H18        -2.0204    1.6814   -0.5125 H         1 <0>         0.0751
@<TRIPOS>BOND
     1    1    2 1
     2    1   26 1
     3    1   27 1
     4    1   28 1
     5    2    3 1
     6    2   29 1
     7    2   30 1
     8    3    7 1
     9    3    4 1
    10    4    5 2
    11    4   25 1
    12    5    6 1
    13    5    9 1
    14    6    7 2
    15    6    8 1
    16    8   31 1
    17    8   32 1
    18    8   33 1
    19    9   10 1
    20    9   34 1
    21    9   35 1
    22   10   11 am
    23   10   36 1
    24   11   12 2
    25   11   13 1
    26   13   14 2
    27   13   15 am
    28   15   16 1
    29   15   37 1
    30   16   21 ar
    31   16   17 ar
    32   17   18 ar
    33   17   38 1
    34   18   19 ar
    35   18   39 1
    36   19   20 ar
    37   19   40 1
    38   20   24 2
    39   20   21 ar
    40   21   22 2
    41   22   23 1
    42   23   24 1
    43   25   41 1
    44   25   42 1
    45   25   43 1
