@<TRIPOS>MOLECULE
ZINC25416684
   57    58     0     0     0
SMALL
USER_CHARGES
4-chloro-N-[(1S)-1-[[[3-(dimethylsulfamoyl)benzoyl]amino]carbamoyl]-2-methyl-propyl]benzamide
@<TRIPOS>ATOM
      1 C1          0.0021   -0.0041    0.0020 C.3       1 <0>        -0.1416
      2 C2         -0.0187    1.5258    0.0104 C.3       1 <0>        -0.1013
      3 C3          1.4167    2.0553   -0.0004 C.3       1 <0>        -0.1511
      4 C4         -0.7587    2.0326   -1.2291 C.3       1 <0>         0.1475
      5 H1         -1.7881    1.6462   -1.2602 H         1 <0>         0.1227
      6 C5         -0.7791    3.5394   -1.2208 C.2       1 <0>         0.5203
      7 O1         -0.2709    4.1578   -2.1320 O.2       1 <0>        -0.5419
      8 N1         -1.3621    4.1999   -0.2008 N.am      1 <0>        -0.5245
      9 N2         -1.3811    5.6007   -0.1931 N.am      1 <0>        -0.5285
     10 C6         -1.9641    6.2612    0.8269 C.2       1 <0>         0.5644
     11 O2         -2.4734    5.6414    1.7401 O.2       1 <0>        -0.5315
     12 C7         -1.9842    7.7395    0.8350 C.ar      1 <0>        -0.1462
     13 C8         -1.3951    8.4543   -0.2093 C.ar      1 <0>        -0.0322
     14 C9         -1.4215    9.8334   -0.1981 C.ar      1 <0>        -0.1400
     15 C10        -2.0209   10.5084    0.8507 C.ar      1 <0>         0.0080
     16 C11        -2.6019    9.8061    1.8914 C.ar      1 <0>        -0.6842
     17 C12        -2.5870    8.4264    1.8897 C.ar      1 <0>         0.0421
     18 S1         -3.3620   10.6754    3.2223 S.o2      1 <0>         2.6940
     19 O3         -3.7230   11.9541    2.7185 O.2       1 <0>        -0.9476
     20 O4         -4.3106    9.7877    3.7979 O.2       1 <0>        -0.9451
     21 N3         -2.1956   10.9308    4.3698 N.pl3     1 <0>        -1.0043
     22 C13        -1.3804   12.1473    4.3275 C.3       1 <0>         0.0840
     23 C14        -1.9791    9.9403    5.4272 C.3       1 <0>         0.0831
     24 N4         -0.0730    1.5601   -2.4344 N.am      1 <0>        -0.7194
     25 C15        -0.3469    0.3371   -2.9299 C.2       1 <0>         0.5671
     26 O5         -1.1629   -0.3741   -2.3766 O.2       1 <0>        -0.5278
     27 C16         0.3449   -0.1395   -4.1458 C.ar      1 <0>        -0.1306
     28 C17         1.2784    0.6772   -4.7867 C.ar      1 <0>        -0.0720
     29 C18         1.9255    0.2244   -5.9170 C.ar      1 <0>        -0.1173
     30 C19         1.6416   -1.0329   -6.4241 C.ar      1 <0>        -0.0105
     31 C20         0.7119   -1.8453   -5.7962 C.ar      1 <0>        -0.1174
     32 C21         0.0632   -1.4061   -4.6614 C.ar      1 <0>        -0.0456
     33 Cl1         2.4546   -1.5930   -7.8520 Cl        1 <0>        -0.0584
     34 H2         -1.0299   -0.3849    0.0098 H         1 <0>         0.0686
     35 H3          0.5341   -0.3684    0.8932 H         1 <0>         0.0552
     36 H4          0.5170   -0.3588   -0.9030 H         1 <0>         0.0577
     37 H5         -0.5336    1.8807    0.9153 H         1 <0>         0.0849
     38 H6          1.4018    3.1552    0.0056 H         1 <0>         0.0525
     39 H7          1.9316    1.7005   -0.9054 H         1 <0>         0.0606
     40 H8          1.9486    1.6909    0.8908 H         1 <0>         0.0642
     41 H9         -1.8230    3.6390    0.6256 H         1 <0>         0.4629
     42 H10        -0.9202    6.1616   -1.0195 H         1 <0>         0.4556
     43 H11        -0.9233    7.9287   -1.0264 H         1 <0>         0.1356
     44 H12        -0.9694   10.3876   -1.0073 H         1 <0>         0.1455
     45 H13        -2.0349   11.5883    0.8570 H         1 <0>         0.1489
     46 H14        -3.0412    7.8793    2.7025 H         1 <0>         0.1562
     47 H15        -0.6661   12.1393    5.1640 H         1 <0>         0.0858
     48 H16        -2.0329   13.0290    4.4109 H         1 <0>         0.0723
     49 H17        -0.8302   12.1870    3.3758 H         1 <0>         0.0603
     50 H18        -1.1700   10.2819    6.0895 H         1 <0>         0.0859
     51 H19        -1.7011    8.9766    4.9755 H         1 <0>         0.0613
     52 H20        -2.9037    9.8187    6.0105 H         1 <0>         0.0730
     53 H21         0.6655    2.2036   -2.9350 H         1 <0>         0.4308
     54 H22         1.4968    1.6597   -4.3951 H         1 <0>         0.1362
     55 H23         2.6517    0.8532   -6.4107 H         1 <0>         0.1416
     56 H24         0.4949   -2.8248   -6.1960 H         1 <0>         0.1427
     57 H25        -0.6610   -2.0406   -4.1722 H         1 <0>         0.1474
@<TRIPOS>BOND
     1    1    2 1
     2    1   34 1
     3    1   35 1
     4    1   36 1
     5    2    3 1
     6    2    4 1
     7    2   37 1
     8    3   38 1
     9    3   39 1
    10    3   40 1
    11    4    5 1
    12    4    6 1
    13    4   24 1
    14    6    7 2
    15    6    8 am
    16    8    9 1
    17    8   41 1
    18    9   10 am
    19    9   42 1
    20   10   11 2
    21   10   12 1
    22   12   17 ar
    23   12   13 ar
    24   13   14 ar
    25   13   43 1
    26   14   15 ar
    27   14   44 1
    28   15   16 ar
    29   15   45 1
    30   16   17 ar
    31   16   18 1
    32   17   46 1
    33   18   19 2
    34   18   20 2
    35   18   21 1
    36   21   22 1
    37   21   23 1
    38   22   47 1
    39   22   48 1
    40   22   49 1
    41   23   50 1
    42   23   51 1
    43   23   52 1
    44   24   25 am
    45   24   53 1
    46   25   26 2
    47   25   27 1
    48   27   32 ar
    49   27   28 ar
    50   28   29 ar
    51   28   54 1
    52   29   30 ar
    53   29   55 1
    54   30   31 ar
    55   30   33 1
    56   31   32 ar
    57   31   56 1
    58   32   57 1
