@<TRIPOS>MOLECULE
ZINC39037462
   52    56     0     0     0
SMALL
USER_CHARGES

@<TRIPOS>ATOM
      1 C1         -0.0162    1.3438    0.0094 C.ar      1 <0>         0.0395
      2 C2          1.1577    2.1180    0.0024 C.ar      1 <0>         0.0388
      3 C3          2.3894    1.5703   -0.0128 C.ar      1 <0>        -0.1401
      4 C4          2.5325    0.1079   -0.0220 C.ar      1 <0>         0.3270
      5 N1          3.5686   -0.6799   -0.0365 N.pl3     1 <0>        -0.4667
      6 C5          3.0715   -2.0615   -0.0390 C.3       1 <0>         0.3239
      7 N2          1.6058   -1.9743   -0.0240 N.pl3     1 <0>        -0.4686
      8 C6          1.2899   -0.7116   -0.0141 C.ar      1 <0>         0.3277
      9 C7          0.0021   -0.0041    0.0020 C.ar      1 <0>        -0.1407
     10 C8          3.5344   -2.7756   -1.2827 C.2       1 <0>        -0.1635
     11 C9          4.2906   -3.8656   -1.1815 C.2       1 <0>         0.1211
     12 C10         4.7536   -4.5797   -2.4252 C.3       1 <0>        -0.1336
     13 H1          4.3735   -4.0616   -3.3057 H         1 <0>         0.1348
     14 C11         6.2824   -4.6000   -2.4641 C.3       1 <0>         0.2649
     15 H2          6.6151   -4.8918   -3.4602 H         1 <0>         0.0836
     16 N3          6.7946   -5.5540   -1.4828 N.2       1 <0>        -0.5624
     17 C12         6.1560   -6.6587   -1.1906 C.2       1 <0>         0.4252
     18 C13         6.7418   -7.5850   -0.2894 C.2       1 <0>        -0.1523
     19 C14         6.1434   -8.7856   -0.0876 C.2       1 <0>        -0.0262
     20 C15         4.9538   -9.0994   -0.7722 C.2       1 <0>        -0.1631
     21 C16         4.3717   -8.1915   -1.5789 C.2       1 <0>         0.0833
     22 N4          4.9264   -6.9481   -1.7455 N.am      1 <0>        -0.4979
     23 C17         4.2396   -5.9975   -2.4135 C.2       1 <0>         0.5256
     24 O1          3.2176   -6.2803   -3.0006 O.2       1 <0>        -0.4463
     25 N5          6.7959   -3.2595   -2.1518 N.3       1 <0>        -0.5273
     26 C18         6.3379   -2.2757   -3.1436 C.3       1 <0>        -0.0006
     27 C19         6.8450   -0.8863   -2.7479 C.3       1 <0>         0.0761
     28 O2          8.2704   -0.9187   -2.6356 O.3       1 <0>        -0.3714
     29 C20         8.7510   -1.8658   -1.6778 C.3       1 <0>         0.0624
     30 C21         8.2633   -3.2650   -2.0626 C.3       1 <0>         0.0237
     31 C22         3.1604   -2.2810   -2.5735 C.1       1 <0>         0.1844
     32 N6          2.8637   -1.8886   -3.5975 N.1       1 <0>        -0.3072
     33 H3         -0.9705    1.8493    0.0259 H         1 <0>         0.2065
     34 H4          1.0690    3.1943    0.0090 H         1 <0>         0.2067
     35 H5          3.2653    2.2022   -0.0185 H         1 <0>         0.2089
     36 H6          3.4241   -2.5876    0.8482 H         1 <0>         0.2523
     37 H7         -0.9237   -0.5603    0.0082 H         1 <0>         0.2084
     38 H8          4.5727   -4.2387   -0.2080 H         1 <0>         0.1791
     39 H9          7.6549   -7.3365    0.2311 H         1 <0>         0.1658
     40 H10         6.5786   -9.4991    0.5963 H         1 <0>         0.1541
     41 H11         4.5056  -10.0744   -0.6500 H         1 <0>         0.1607
     42 H12         3.4601   -8.4449   -2.0995 H         1 <0>         0.1758
     43 H13         6.7294   -2.5399   -4.1259 H         1 <0>         0.0643
     44 H14         5.2484   -2.2703   -3.1746 H         1 <0>         0.0653
     45 H15         6.5563   -0.1628   -3.5103 H         1 <0>         0.1026
     46 H16         6.4109   -0.5996   -1.7901 H         1 <0>         0.0383
     47 H17         9.8409   -1.8506   -1.6663 H         1 <0>         0.1124
     48 H18         8.3723   -1.6075   -0.6889 H         1 <0>         0.0595
     49 H19         8.5792   -3.9818   -1.3046 H         1 <0>         0.1162
     50 H20         8.6855   -3.5451   -3.0277 H         1 <0>         0.0544
     51 H21         4.4987   -0.4047   -0.0446 H         1 <0>         0.4972
     52 H22         0.9865   -2.7208   -0.0223 H         1 <0>         0.4977
@<TRIPOS>BOND
     1    1    9 ar
     2    1    2 ar
     3    1   33 1
     4    2    3 ar
     5    2   34 1
     6    3    4 ar
     7    3   35 1
     8    4    8 ar
     9    4    5 2
    10    5    6 1
    11    5   51 1
    12    6    7 1
    13    6   10 1
    14    6   36 1
    15    7    8 2
    16    7   52 1
    17    8    9 ar
    18    9   37 1
    19   10   11 2
    20   10   31 1
    21   11   12 1
    22   11   38 1
    23   12   13 1
    24   12   23 1
    25   12   14 1
    26   14   15 1
    27   14   16 1
    28   14   25 1
    29   16   17 2
    30   17   22 1
    31   17   18 1
    32   18   19 2
    33   18   39 1
    34   19   20 1
    35   19   40 1
    36   20   21 2
    37   20   41 1
    38   21   22 1
    39   21   42 1
    40   22   23 am
    41   23   24 2
    42   25   30 1
    43   25   26 1
    44   26   27 1
    45   26   43 1
    46   26   44 1
    47   27   28 1
    48   27   45 1
    49   27   46 1
    50   28   29 1
    51   29   30 1
    52   29   47 1
    53   29   48 1
    54   30   49 1
    55   30   50 1
    56   31   32 3
