@<TRIPOS>MOLECULE
ZINC38586610
   47    51     0     0     0
SMALL
USER_CHARGES

@<TRIPOS>ATOM
      1 C1         -0.0269    1.5062   -0.0271 C.3       1 <0>        -0.1109
      2 C2         -0.0042   -0.0007   -0.0338 C.2       1 <0>         0.1986
      3 C3         -1.0633   -0.7510    0.0769 C.2       1 <0>        -0.2903
      4 C4         -2.4964   -0.3887    0.3855 C.3       1 <0>         0.0438
      5 H1         -3.1509   -0.7362   -0.4139 H         1 <0>         0.1019
      6 C5         -2.8466   -1.1004    1.7006 C.3       1 <0>        -0.1294
      7 C6         -2.2337   -2.4613    1.7757 C.2       1 <0>         0.5292
      8 O1         -2.7372   -3.2340    2.5633 O.2       1 <0>        -0.5445
      9 N1         -1.1972   -2.9237    1.0762 N.am      1 <0>        -0.7147
     10 C7         -0.6232   -2.2000   -0.0511 C.3       1 <0>         0.4062
     11 H2         -0.9714   -2.6241   -0.9929 H         1 <0>         0.1241
     12 N2          0.8386   -2.1288   -0.0098 N.pl3     1 <0>        -0.3314
     13 N3          1.1462   -0.7641   -0.1646 N.pl3     1 <0>        -0.5252
     14 C8          1.7042   -3.1519    0.1393 C.2       1 <0>         0.5296
     15 N4          1.2799   -4.3966    0.2650 N.2       1 <0>        -0.6635
     16 C9          2.0823   -5.4341    0.4785 C.2       1 <0>         0.4549
     17 N5          3.3336   -5.2917    0.9001 N.2       1 <0>        -0.5567
     18 C10         3.7652   -4.0414    1.0324 C.2       1 <0>         0.3906
     19 N6          4.6057   -3.4491    1.8267 N.2       1 <0>        -0.5350
     20 C11         4.4367   -2.1204    1.8111 C.2       1 <0>         0.3155
     21 N7          3.5995   -1.7204    0.8950 N.2       1 <0>        -0.5407
     22 C12         3.1911   -2.9205    0.1626 C.3       1 <0>        -0.0715
     23 H3          3.6064   -2.9465   -0.8448 H         1 <0>         0.1736
     24 C13        -2.6291    1.1033    0.5506 C.ar      1 <0>        -0.0800
     25 C14        -2.3747    1.6869    1.7784 C.ar      1 <0>        -0.0976
     26 C15        -2.4956    3.0536    1.9334 C.ar      1 <0>        -0.0961
     27 C16        -2.8731    3.8430    0.8537 C.ar      1 <0>        -0.0787
     28 C17        -3.1275    3.2532   -0.3787 C.ar      1 <0>        -0.1309
     29 C18        -2.9994    1.8864   -0.5276 C.ar      1 <0>        -0.0883
     30 S1         -3.0293    5.5874    1.0470 S.3       1 <0>        -0.1162
     31 C19        -3.5302    6.1679   -0.5970 C.3       1 <0>        -0.1451
     32 H4          0.9726    1.8855   -0.2395 H         1 <0>         0.0712
     33 H5         -0.7203    1.8625   -0.7890 H         1 <0>         0.0982
     34 H6         -0.3495    1.8603    0.9519 H         1 <0>         0.0984
     35 H7         -2.4845   -0.5012    2.5360 H         1 <0>         0.1098
     36 H8         -3.9300   -1.1942    1.7760 H         1 <0>         0.1125
     37 H9         -0.8089   -3.7761    1.3281 H         1 <0>         0.4120
     38 H10         2.0326   -0.4093   -0.3354 H         1 <0>         0.4483
     39 H11         1.7028   -6.4299    0.3030 H         1 <0>         0.2182
     40 H12         4.9424   -1.4486    2.4888 H         1 <0>         0.2130
     41 H13        -2.0814    1.0728    2.6170 H         1 <0>         0.1311
     42 H14        -2.2975    3.5085    2.8927 H         1 <0>         0.1301
     43 H15        -3.4210    3.8635   -1.2199 H         1 <0>         0.1254
     44 H16        -3.1930    1.4278   -1.4860 H         1 <0>         0.1299
     45 H17        -3.6537    7.2507   -0.5779 H         1 <0>         0.1105
     46 H18        -2.7639    5.9024   -1.3252 H         1 <0>         0.0848
     47 H19        -4.4742    5.6995   -0.8757 H         1 <0>         0.0851
@<TRIPOS>BOND
     1    1    2 1
     2    1   32 1
     3    1   33 1
     4    1   34 1
     5    2   13 1
     6    2    3 2
     7    3   10 1
     8    3    4 1
     9    4    5 1
    10    4    6 1
    11    4   24 1
    12    6    7 1
    13    6   35 1
    14    6   36 1
    15    7    8 2
    16    7    9 am
    17    9   10 1
    18    9   37 1
    19   10   11 1
    20   10   12 1
    21   12   13 1
    22   12   14 1
    23   13   38 1
    24   14   22 1
    25   14   15 2
    26   15   16 1
    27   16   17 2
    28   16   39 1
    29   17   18 1
    30   18   22 1
    31   18   19 2
    32   19   20 1
    33   20   21 2
    34   20   40 1
    35   21   22 1
    36   22   23 1
    37   24   29 ar
    38   24   25 ar
    39   25   26 ar
    40   25   41 1
    41   26   27 ar
    42   26   42 1
    43   27   28 ar
    44   27   30 1
    45   28   29 ar
    46   28   43 1
    47   29   44 1
    48   30   31 1
    49   31   45 1
    50   31   46 1
    51   31   47 1
