@<TRIPOS>MOLECULE
ZINC47584634
   48    49     0     0     0
SMALL
USER_CHARGES

@<TRIPOS>ATOM
      1 C1         -0.9956    1.4436   -0.3156 C.3       1 <0>        -0.1173
      2 C2         -0.7087   -0.0339   -0.2412 C.ar      1 <0>        -0.0826
      3 C3         -0.9805   -0.8463   -1.3262 C.ar      1 <0>        -0.1199
      4 C4         -0.7172   -2.2016   -1.2580 C.ar      1 <0>        -0.0981
      5 C5         -0.1818   -2.7445   -0.1050 C.ar      1 <0>        -0.1042
      6 C6          0.0909   -1.9321    0.9796 C.ar      1 <0>        -0.1086
      7 C7         -0.1684   -0.5760    0.9099 C.ar      1 <0>        -0.1226
      8 C8          0.1043   -4.2223   -0.0303 C.3       1 <0>         0.1935
      9 H1         -0.2115   -4.7008   -0.9574 H         1 <0>         0.1119
     10 C9          1.6049   -4.4417    0.1714 C.3       1 <0>        -0.1592
     11 N1         -0.6302   -4.8055    1.0951 N.am      1 <0>        -0.6182
     12 C10        -0.3135   -4.3984    2.4663 C.3       1 <0>         0.0680
     13 C11        -1.5972   -5.7167    0.8690 C.2       1 <0>         0.7083
     14 O1         -1.8601   -6.0546   -0.2691 O.2       1 <0>        -0.5693
     15 N2         -2.2729   -6.2533    1.9043 N.am      1 <0>        -0.6847
     16 C12        -3.3394   -7.1304    1.6658 C.ar      1 <0>         0.1511
     17 C13        -4.4472   -7.1201    2.5029 C.ar      1 <0>        -0.1255
     18 C14        -5.4980   -7.9843    2.2679 C.ar      1 <0>        -0.1196
     19 C15        -5.4470   -8.8636    1.1945 C.ar      1 <0>         0.1405
     20 C16        -4.3392   -8.8738    0.3574 C.ar      1 <0>        -0.0984
     21 C17        -3.2910   -8.0057    0.5890 C.ar      1 <0>        -0.0968
     22 N3         -6.5134   -9.7410    0.9563 N.am      1 <0>        -0.6490
     23 C18        -6.2761  -10.9700    0.4566 C.2       1 <0>         0.6457
     24 O2         -5.1332  -11.3507    0.2970 O.2       1 <0>        -0.5502
     25 O3         -7.3054  -11.7761    0.1344 O.3       1 <0>        -0.3628
     26 C19        -6.9805  -13.0651   -0.3900 C.3       1 <0>         0.0527
     27 H2         -0.1189    1.9651   -0.6996 H         1 <0>         0.0716
     28 H3         -1.8416    1.6164   -0.9809 H         1 <0>         0.0668
     29 H4         -1.2340    1.8180    0.6800 H         1 <0>         0.0664
     30 H5         -1.3988   -0.4221   -2.2270 H         1 <0>         0.1229
     31 H6         -0.9302   -2.8364   -2.1054 H         1 <0>         0.1240
     32 H7          0.5089   -2.3563    1.8806 H         1 <0>         0.1236
     33 H8          0.0481    0.0593    1.7560 H         1 <0>         0.1216
     34 H9          2.1514   -4.0077   -0.6659 H         1 <0>         0.0741
     35 H10         1.9207   -3.9632    1.0984 H         1 <0>         0.0614
     36 H11         1.8118   -5.5105    0.2254 H         1 <0>         0.0651
     37 H12        -0.9415   -3.5534    2.7486 H         1 <0>         0.0619
     38 H13        -0.4987   -5.2314    3.1445 H         1 <0>         0.0670
     39 H14         0.7353   -4.1076    2.5259 H         1 <0>         0.0828
     40 H15        -2.0209   -6.0324    2.8146 H         1 <0>         0.4065
     41 H16        -4.4867   -6.4364    3.3380 H         1 <0>         0.1313
     42 H17        -6.3595   -7.9765    2.9192 H         1 <0>         0.1329
     43 H18        -4.2994   -9.5580   -0.4773 H         1 <0>         0.1379
     44 H19        -2.4314   -8.0103   -0.0649 H         1 <0>         0.1457
     45 H20        -7.4223   -9.4638    1.1509 H         1 <0>         0.4179
     46 H21        -7.8986  -13.6110   -0.6072 H         1 <0>         0.1068
     47 H22        -6.4013  -12.9493   -1.3060 H         1 <0>         0.0636
     48 H23        -6.3938  -13.6183    0.3434 H         1 <0>         0.0635
@<TRIPOS>BOND
     1    1    2 1
     2    1   27 1
     3    1   28 1
     4    1   29 1
     5    2    7 ar
     6    2    3 ar
     7    3    4 ar
     8    3   30 1
     9    4    5 ar
    10    4   31 1
    11    5    6 ar
    12    5    8 1
    13    6    7 ar
    14    6   32 1
    15    7   33 1
    16    8    9 1
    17    8   10 1
    18    8   11 1
    19   10   34 1
    20   10   35 1
    21   10   36 1
    22   11   12 1
    23   11   13 am
    24   12   37 1
    25   12   38 1
    26   12   39 1
    27   13   14 2
    28   13   15 am
    29   15   16 1
    30   15   40 1
    31   16   21 ar
    32   16   17 ar
    33   17   18 ar
    34   17   41 1
    35   18   19 ar
    36   18   42 1
    37   19   20 ar
    38   19   22 1
    39   20   21 ar
    40   20   43 1
    41   21   44 1
    42   22   23 am
    43   22   45 1
    44   23   24 2
    45   23   25 1
    46   25   26 1
    47   26   46 1
    48   26   47 1
    49   26   48 1
