@<TRIPOS>MOLECULE
ZINC36531212
   55    56     0     0     0
SMALL
USER_CHARGES

@<TRIPOS>ATOM
      1 C1          0.1418    1.3082    0.3090 C.3       1 <0>        -0.1641
      2 C2          0.2212   -0.2172    0.2211 C.3       1 <0>         0.1704
      3 C3          1.0798   -0.7502    1.3699 C.3       1 <0>        -0.1647
      4 C4         -1.1868   -0.8077    0.3203 C.3       1 <0>        -0.1569
      5 N1          0.8232   -0.6021   -1.0578 N.am      1 <0>        -0.7180
      6 C5          2.0698   -0.1929   -1.3661 C.2       1 <0>         0.5142
      7 O1          2.6932    0.4939   -0.5847 O.2       1 <0>        -0.5140
      8 C6          2.6891   -0.5888   -2.6817 C.3       1 <0>         0.1642
      9 H1          2.7456   -1.6755   -2.7442 H         1 <0>         0.1320
     10 C7          1.8433   -0.0638   -3.8131 C.ar      1 <0>        -0.0745
     11 C8          1.0601    1.0599   -3.6250 C.ar      1 <0>        -0.1234
     12 C9          0.2826    1.5454   -4.6598 C.ar      1 <0>        -0.1038
     13 C10         0.2874    0.9058   -5.8890 C.ar      1 <0>         0.0870
     14 C11         1.0761   -0.2249   -6.0785 C.ar      1 <0>         0.1066
     15 C12         1.8568   -0.7035   -5.0386 C.ar      1 <0>        -0.1672
     16 O2          1.0842   -0.8560   -7.2831 O.3       1 <0>        -0.3051
     17 C13         1.9175   -2.0104   -7.4050 C.3       1 <0>         0.0230
     18 O3         -0.4773    1.3819   -6.9079 O.3       1 <0>        -0.4852
     19 N2          4.0372   -0.0233   -2.7766 N.am      1 <0>        -0.5783
     20 C14         4.2360    1.4223   -2.6469 C.3       1 <0>         0.0867
     21 C15         5.0946   -0.8331   -2.9833 C.2       1 <0>         0.5867
     22 O4          4.9295   -2.0333   -3.0910 O.2       1 <0>        -0.5295
     23 C16         6.4495   -0.2649   -3.0787 C.ar      1 <0>        -0.1788
     24 C17         7.2389   -0.1240   -1.9280 C.ar      1 <0>         0.1615
     25 C18         8.5127    0.4115   -2.0292 C.ar      1 <0>        -0.1533
     26 C19         9.0061    0.8064   -3.2588 C.ar      1 <0>        -0.0689
     27 C20         8.2364    0.6724   -4.3993 C.ar      1 <0>        -0.1544
     28 C21         6.9622    0.1340   -4.3217 C.ar      1 <0>         0.1545
     29 O5          6.2112   -0.0020   -5.4432 O.3       1 <0>        -0.4875
     30 O6          6.7568   -0.5102   -0.7202 O.3       1 <0>        -0.4877
     31 H2          1.1449    1.7289    0.2383 H         1 <0>         0.0778
     32 H3         -0.4699    1.6879   -0.5094 H         1 <0>         0.0546
     33 H4         -0.3061    1.5945    1.2605 H         1 <0>         0.0643
     34 H5          0.6319   -0.4639    2.3214 H         1 <0>         0.0638
     35 H6          1.1364   -1.8370    1.3073 H         1 <0>         0.0538
     36 H7          2.0829   -0.3295    1.2992 H         1 <0>         0.0783
     37 H8         -1.7985   -0.4280   -0.4981 H         1 <0>         0.0633
     38 H9         -1.1302   -1.8945    0.2577 H         1 <0>         0.0625
     39 H10        -1.6347   -0.5214    1.2718 H         1 <0>         0.0750
     40 H11         0.3246   -1.1514   -1.6828 H         1 <0>         0.4010
     41 H12         1.0555    1.5592   -2.6674 H         1 <0>         0.1291
     42 H13        -0.3289    2.4229   -4.5100 H         1 <0>         0.1397
     43 H14         2.4727   -1.5786   -5.1842 H         1 <0>         0.1374
     44 H15         1.6035   -2.7633   -6.6821 H         1 <0>         0.0576
     45 H16         1.8310   -2.4162   -8.4130 H         1 <0>         0.1040
     46 H17         2.9538   -1.7324   -7.2131 H         1 <0>         0.0586
     47 H18        -0.0284    2.0314   -7.4662 H         1 <0>         0.3897
     48 H19         4.5021    1.6615   -1.6173 H         1 <0>         0.0760
     49 H20         5.0385    1.7399   -3.3127 H         1 <0>         0.0595
     50 H21         3.3154    1.9411   -2.9142 H         1 <0>         0.0735
     51 H22         9.1221    0.5213   -1.1444 H         1 <0>         0.1401
     52 H23        10.0001    1.2229   -3.3288 H         1 <0>         0.1387
     53 H24         8.6313    0.9847   -5.3547 H         1 <0>         0.1395
     54 H25         5.6625    0.7682   -5.6450 H         1 <0>         0.3924
     55 H26         6.9470   -1.4318   -0.4973 H         1 <0>         0.3987
@<TRIPOS>BOND
     1    1    2 1
     2    1   31 1
     3    1   32 1
     4    1   33 1
     5    2    3 1
     6    2    4 1
     7    2    5 1
     8    3   34 1
     9    3   35 1
    10    3   36 1
    11    4   37 1
    12    4   38 1
    13    4   39 1
    14    5    6 am
    15    5   40 1
    16    6    7 2
    17    6    8 1
    18    8    9 1
    19    8   10 1
    20    8   19 1
    21   10   15 ar
    22   10   11 ar
    23   11   12 ar
    24   11   41 1
    25   12   13 ar
    26   12   42 1
    27   13   14 ar
    28   13   18 1
    29   14   15 ar
    30   14   16 1
    31   15   43 1
    32   16   17 1
    33   17   44 1
    34   17   45 1
    35   17   46 1
    36   18   47 1
    37   19   20 1
    38   19   21 am
    39   20   48 1
    40   20   49 1
    41   20   50 1
    42   21   22 2
    43   21   23 1
    44   23   28 ar
    45   23   24 ar
    46   24   25 ar
    47   24   30 1
    48   25   26 ar
    49   25   51 1
    50   26   27 ar
    51   26   52 1
    52   27   28 ar
    53   27   53 1
    54   28   29 1
    55   29   54 1
    56   30   55 1
