@<TRIPOS>MOLECULE
ZINC26337228
   52    53     0     0     0
SMALL
USER_CHARGES
N-isopropyl-2-[4-(2-methylamino-5-nitro-benzoyl)piperazin-1-yl]acetamide
@<TRIPOS>ATOM
      1 C1          9.3779    7.1847   -2.9231 C.3       1 <0>        -0.1672
      2 C2          8.6051    6.8162   -1.6551 C.3       1 <0>         0.1385
      3 C3          9.1911    7.5743   -0.4623 C.3       1 <0>        -0.1686
      4 N1          7.1953    7.1792   -1.8196 N.am      1 <0>        -0.7114
      5 C4          6.2467    6.5363   -1.1101 C.2       1 <0>         0.4998
      6 O1          6.5602    5.6574   -0.3355 O.2       1 <0>        -0.5333
      7 C5          4.7966    6.9097   -1.2794 C.3       1 <0>        -0.0291
      8 N2          3.9692    6.0701   -0.4027 N.4       1 <0>        -0.3883
      9 C6          2.5843    6.5581   -0.3602 C.3       1 <0>        -0.0162
     10 C7          1.8017    5.7725    0.6974 C.3       1 <0>         0.0863
     11 N3          1.9466    4.3364    0.4149 N.am      1 <0>        -0.6266
     12 C8          3.3023    3.7972    0.2286 C.3       1 <0>         0.0789
     13 C9          4.0255    4.6617   -0.8163 C.3       1 <0>        -0.0223
     14 C10         0.8662    3.5347    0.3343 C.2       1 <0>         0.5877
     15 O2         -0.2507    4.0116    0.3958 O.2       1 <0>        -0.5063
     16 C11         1.0385    2.0795    0.1716 C.ar      1 <0>        -0.2378
     17 C12         1.9170    1.3785    1.0019 C.ar      1 <0>         0.0254
     18 C13         2.0742    0.0191    0.8442 C.ar      1 <0>        -0.1109
     19 C14         1.3647   -0.6592   -0.1344 C.ar      1 <0>         0.0213
     20 C15         0.4936    0.0185   -0.9621 C.ar      1 <0>        -0.1977
     21 C16         0.3219    1.3900   -0.8186 C.ar      1 <0>         0.3159
     22 N4         -0.5497    2.0755   -1.6545 N.pl3     1 <0>        -0.7217
     23 C17        -1.3817    1.3382   -2.6087 C.3       1 <0>         0.0731
     24 N5          3.0061   -0.7212    1.7243 N.pl3     1 <0>         0.0356
     25 O3          3.1479   -1.9231    1.5875 O.2       1 <0>        -0.1557
     26 O4          3.6312   -0.1284    2.5854 O.3       1 <0>        -0.1708
     27 H1          8.9566    6.6397   -3.7807 H         1 <0>         0.0653
     28 H2         10.4364    6.9122   -2.7996 H         1 <0>         0.0840
     29 H3          9.2963    8.2672   -3.1007 H         1 <0>         0.0679
     30 H4          8.6423    5.7308   -1.4804 H         1 <0>         0.0948
     31 H5          8.6355    7.3094    0.4493 H         1 <0>         0.0604
     32 H6          9.1095    8.6568   -0.6399 H         1 <0>         0.0629
     33 H7         10.2496    7.3018   -0.3388 H         1 <0>         0.0775
     34 H8          6.9110    7.9764   -2.5222 H         1 <0>         0.4322
     35 H9          4.6569    7.9677   -1.0126 H         1 <0>         0.1625
     36 H10         4.4974    6.7530   -2.3263 H         1 <0>         0.1560
     37 H11         2.5801    7.6274   -0.1021 H         1 <0>         0.1486
     38 H12         2.1154    6.4169   -1.3452 H         1 <0>         0.1332
     39 H13         2.2035    6.0009    1.6956 H         1 <0>         0.1024
     40 H14         0.7402    6.0579    0.6553 H         1 <0>         0.1421
     41 H15         3.8443    3.8292    1.1853 H         1 <0>         0.1083
     42 H16         3.2381    2.7565   -0.1218 H         1 <0>         0.1311
     43 H17         3.5341    4.5467   -1.7937 H         1 <0>         0.1278
     44 H18         5.0758    4.3441   -0.8943 H         1 <0>         0.1595
     45 H19         2.4724    1.9019    1.7661 H         1 <0>         0.1553
     46 H20         1.4950   -1.7251   -0.2500 H         1 <0>         0.1618
     47 H21        -0.0552   -0.5173   -1.7224 H         1 <0>         0.1556
     48 H22        -0.6154    3.1722   -1.6002 H         1 <0>         0.4341
     49 H23        -2.0015    2.0463   -3.1783 H         1 <0>         0.0890
     50 H24        -2.0318    0.6379   -2.0637 H         1 <0>         0.0701
     51 H25        -0.7365    0.7768   -3.3005 H         1 <0>         0.0680
     52 H26         4.3785    6.1361    0.6162 H         1 <0>         0.4512
@<TRIPOS>BOND
     1    1    2 1
     2    1   27 1
     3    1   28 1
     4    1   29 1
     5    2    3 1
     6    2    4 1
     7    2   30 1
     8    3   31 1
     9    3   32 1
    10    3   33 1
    11    4    5 am
    12    4   34 1
    13    5    6 2
    14    5    7 1
    15    7    8 1
    16    7   35 1
    17    7   36 1
    18    8   13 1
    19    8    9 1
    20    8   52 1
    21    9   10 1
    22    9   37 1
    23    9   38 1
    24   10   11 1
    25   10   39 1
    26   10   40 1
    27   11   12 1
    28   11   14 am
    29   12   13 1
    30   12   41 1
    31   12   42 1
    32   13   43 1
    33   13   44 1
    34   14   15 2
    35   14   16 1
    36   16   21 ar
    37   16   17 ar
    38   17   18 ar
    39   17   45 1
    40   18   19 ar
    41   18   24 1
    42   19   20 ar
    43   19   46 1
    44   20   21 ar
    45   20   47 1
    46   21   22 1
    47   22   23 1
    48   22   48 1
    49   23   49 1
    50   23   50 1
    51   23   51 1
    52   24   25 2
    53   24   26 1
