@<TRIPOS>MOLECULE
ZINC36019108
   72    74     0     0     0
SMALL
USER_CHARGES

@<TRIPOS>ATOM
      1 C1         -2.1405    0.3122   -0.2004 C.3       1 <0>        -0.1526
      2 C2         -1.4491   -1.0453   -0.0586 C.3       1 <0>         0.0643
      3 O1         -0.5896   -1.2615   -1.1795 O.3       1 <0>        -0.3410
      4 C3          0.0995   -2.4214   -1.2084 C.2       1 <0>         0.5387
      5 O2         -0.0270   -3.2268   -0.3051 O.2       1 <0>        -0.5152
      6 C4          0.9689   -2.7008   -2.2886 C.2       1 <0>        -0.2820
      7 C5          1.5580   -3.9093   -2.4161 C.2       1 <0>         0.2786
      8 N1          2.3968   -4.1779   -3.4598 N.am      1 <0>        -0.5248
      9 C6          2.6981   -3.2918   -4.4173 C.2       1 <0>         0.7043
     10 O3          3.4561   -3.6235   -5.3078 O.2       1 <0>        -0.5551
     11 N2          2.1880   -2.0444   -4.4262 N.am      1 <0>        -0.7122
     12 C7          1.2659   -1.6565   -3.3456 C.3       1 <0>         0.2405
     13 H1          0.3202   -1.3572   -3.7973 H         1 <0>         0.0896
     14 C8          1.8480   -0.4497   -2.6557 C.ar      1 <0>        -0.1163
     15 C9          3.1827   -0.4357   -2.2964 C.ar      1 <0>        -0.0905
     16 C10         3.7166    0.6712   -1.6635 C.ar      1 <0>        -0.1237
     17 C11         2.9159    1.7644   -1.3903 C.ar      1 <0>        -0.0770
     18 C12         1.5813    1.7508   -1.7504 C.ar      1 <0>        -0.1243
     19 C13         1.0484    0.6455   -2.3871 C.ar      1 <0>        -0.0784
     20 C14         3.4977    2.9707   -0.6995 C.3       1 <0>        -0.1179
     21 C15         3.0012   -5.5103   -3.5357 C.3       1 <0>         0.1343
     22 C16         2.1417   -6.4037   -4.3925 C.2       1 <0>        -0.1931
     23 C17         2.6759   -7.0698   -5.3859 C.2       1 <0>        -0.1471
     24 C18         1.2858   -4.9786   -1.3897 C.3       1 <0>         0.0370
     25 N3          2.3722   -4.9965   -0.4012 N.3       1 <0>        -0.5243
     26 C19         2.3257   -3.8029    0.4538 C.3       1 <0>         0.0481
     27 C20         3.5717   -3.7682    1.3452 C.3       1 <0>         0.1335
     28 N4          3.6659   -5.0466    2.0664 N.am      1 <0>        -0.6300
     29 C21         3.5815   -6.2922    1.2888 C.3       1 <0>         0.1177
     30 C22         2.3351   -6.2274    0.3997 C.3       1 <0>         0.0424
     31 C23         3.8257   -5.0758    3.4044 C.2       1 <0>         0.7088
     32 O4          3.8289   -4.0388    4.0390 O.2       1 <0>        -0.5877
     33 N5          3.9819   -6.2546    4.0388 N.am      1 <0>        -0.7431
     34 C24         4.0620   -6.2946    5.5010 C.3       1 <0>         0.1523
     35 C25         2.6497   -6.3328    6.0883 C.3       1 <0>        -0.1641
     36 C26         4.8292   -7.5449    5.9358 C.3       1 <0>        -0.1606
     37 H2         -1.3888    1.1005   -0.2393 H         1 <0>         0.0673
     38 H3         -2.7292    0.3260   -1.1177 H         1 <0>         0.0660
     39 H4         -2.7962    0.4771    0.6546 H         1 <0>         0.0785
     40 H5         -0.8604   -1.0591    0.8587 H         1 <0>         0.0667
     41 H6         -2.2008   -1.8336   -0.0197 H         1 <0>         0.0658
     42 H7          2.4201   -1.4181   -5.1297 H         1 <0>         0.4324
     43 H8          3.8084   -1.2898   -2.5099 H         1 <0>         0.1123
     44 H9          4.7593    0.6818   -1.3822 H         1 <0>         0.1199
     45 H10         0.9556    2.6047   -1.5366 H         1 <0>         0.1213
     46 H11         0.0067    0.6364   -2.6718 H         1 <0>         0.1265
     47 H12         3.8804    3.6672   -1.4455 H         1 <0>         0.0710
     48 H13         2.7230    3.4601   -0.1091 H         1 <0>         0.0666
     49 H14         4.3104    2.6574   -0.0443 H         1 <0>         0.0664
     50 H15         3.9960   -5.4335   -3.9747 H         1 <0>         0.1025
     51 H16         3.0779   -5.9321   -2.5336 H         1 <0>         0.1137
     52 H17         1.0853   -6.4949   -4.1874 H         1 <0>         0.1103
     53 H18         2.0600   -7.7101   -5.9999 H         1 <0>         0.1028
     54 H19         3.7324   -6.9787   -5.5910 H         1 <0>         0.1029
     55 H20         0.3413   -4.7685   -0.8878 H         1 <0>         0.1273
     56 H21         1.2272   -5.9490   -1.8828 H         1 <0>         0.0907
     57 H22         2.2998   -2.9094   -0.1700 H         1 <0>         0.0801
     58 H23         1.4328   -3.8372    1.0780 H         1 <0>         0.0625
     59 H24         4.4595   -3.6297    0.7282 H         1 <0>         0.0681
     60 H25         3.4878   -2.9498    2.0601 H         1 <0>         0.0957
     61 H26         4.4703   -6.3962    0.6665 H         1 <0>         0.0780
     62 H27         3.5040   -7.1423    1.9665 H         1 <0>         0.0812
     63 H28         1.4421   -6.2279    1.0246 H         1 <0>         0.0469
     64 H29         2.3160   -7.0923   -0.2634 H         1 <0>         0.0891
     65 H30         4.0414   -7.0766    3.5272 H         1 <0>         0.3935
     66 H31         4.5812   -5.4063    5.8608 H         1 <0>         0.0890
     67 H32         2.7093   -6.3625    7.1763 H         1 <0>         0.0661
     68 H33         2.1032   -5.4420    5.7785 H         1 <0>         0.0592
     69 H34         2.1305   -7.2211    5.7285 H         1 <0>         0.0547
     70 H35         5.8353   -7.5177    5.5174 H         1 <0>         0.0616
     71 H36         4.8888   -7.5746    7.0238 H         1 <0>         0.0745
     72 H37         4.3100   -8.4332    5.5760 H         1 <0>         0.0598
@<TRIPOS>BOND
     1    1    2 1
     2    1   37 1
     3    1   38 1
     4    1   39 1
     5    2    3 1
     6    2   40 1
     7    2   41 1
     8    3    4 1
     9    4    5 2
    10    4    6 1
    11    6   12 1
    12    6    7 2
    13    7    8 1
    14    7   24 1
    15    8    9 am
    16    8   21 1
    17    9   10 2
    18    9   11 am
    19   11   12 1
    20   11   42 1
    21   12   13 1
    22   12   14 1
    23   14   19 ar
    24   14   15 ar
    25   15   16 ar
    26   15   43 1
    27   16   17 ar
    28   16   44 1
    29   17   18 ar
    30   17   20 1
    31   18   19 ar
    32   18   45 1
    33   19   46 1
    34   20   47 1
    35   20   48 1
    36   20   49 1
    37   21   22 1
    38   21   50 1
    39   21   51 1
    40   22   23 2
    41   22   52 1
    42   23   53 1
    43   23   54 1
    44   24   25 1
    45   24   55 1
    46   24   56 1
    47   25   30 1
    48   25   26 1
    49   26   27 1
    50   26   57 1
    51   26   58 1
    52   27   28 1
    53   27   59 1
    54   27   60 1
    55   28   29 1
    56   28   31 am
    57   29   30 1
    58   29   61 1
    59   29   62 1
    60   30   63 1
    61   30   64 1
    62   31   32 2
    63   31   33 am
    64   33   34 1
    65   33   65 1
    66   34   35 1
    67   34   36 1
    68   34   66 1
    69   35   67 1
    70   35   68 1
    71   35   69 1
    72   36   70 1
    73   36   71 1
    74   36   72 1
