@<TRIPOS>MOLECULE
ZINC44412265
   33    34     0     0     0
SMALL
USER_CHARGES

@<TRIPOS>ATOM
      1 C1         -0.0853    1.6884   -0.2885 C.3       1 <0>         0.0954
      2 N1         -0.0510    0.2304   -0.1494 N.pl3     1 <0>        -0.6306
      3 C2         -0.0425   -0.3782    1.1832 C.3       1 <0>         0.1830
      4 C3         -1.4600   -0.6209    1.6336 C.2       1 <0>        -0.1487
      5 C4         -2.1498    0.3514    2.3338 C.2       1 <0>        -0.0980
      6 C5         -3.4242    0.1004    2.7244 C.2       1 <0>        -0.1795
      7 S1         -3.6838   -1.5511    2.0980 S.3       1 <0>         0.0997
      8 C6         -2.0794   -1.7934    1.3535 C.2       1 <0>        -0.1432
      9 Br1        -4.6164    1.2112    3.6839 Br        1 <0>         0.0383
     10 C7         -0.0264   -0.5813   -1.2900 C.ar      1 <0>         0.1506
     11 C8          0.0003   -1.9661   -1.1555 C.ar      1 <0>        -0.1094
     12 C9          0.0242   -2.7746   -2.2727 C.ar      1 <0>        -0.1664
     13 C10         0.0223   -2.2106   -3.5422 C.ar      1 <0>         0.2392
     14 C11        -0.0046   -0.8154   -3.6851 C.ar      1 <0>        -0.1927
     15 C12        -0.0345   -0.0043   -2.5474 C.ar      1 <0>        -0.1131
     16 C13        -0.0070   -0.2080   -5.0285 C.2       1 <0>         0.5768
     17 O1         -0.0898   -0.9142   -6.0150 O.2       1 <0>        -0.5542
     18 N2          0.0827    1.1300   -5.1633 N.am      1 <0>        -0.8498
     19 N3          0.0473   -3.0271   -4.6687 N.pl3     1 <0>        -0.8638
     20 H1          0.9336    2.0746   -0.3183 H         1 <0>         0.0486
     21 H2         -0.6014    1.9533   -1.2113 H         1 <0>         0.0642
     22 H3         -0.6135    2.1221    0.5606 H         1 <0>         0.0639
     23 H4          0.4943   -1.3262    1.1462 H         1 <0>         0.0862
     24 H5          0.4522    0.2923    1.8858 H         1 <0>         0.0843
     25 H6         -1.6810    1.2961    2.5665 H         1 <0>         0.1386
     26 H7         -1.7002   -2.6520    0.8193 H         1 <0>         0.1905
     27 H8          0.0027   -2.4102   -0.1710 H         1 <0>         0.1254
     28 H9          0.0449   -3.8485   -2.1603 H         1 <0>         0.1284
     29 H10        -0.0594    1.0706   -2.6495 H         1 <0>         0.1240
     30 H11         0.1488    1.6934   -4.3764 H         1 <0>         0.4011
     31 H12         0.0812    1.5297   -6.0471 H         1 <0>         0.4046
     32 H13         0.1477   -3.9868   -4.5699 H         1 <0>         0.3914
     33 H14        -0.0356   -2.6366   -5.5527 H         1 <0>         0.4152
@<TRIPOS>BOND
     1    1    2 1
     2    1   20 1
     3    1   21 1
     4    1   22 1
     5    2    3 1
     6    2   10 1
     7    3    4 1
     8    3   23 1
     9    3   24 1
    10    4    8 2
    11    4    5 1
    12    5    6 2
    13    5   25 1
    14    6    7 1
    15    6    9 1
    16    7    8 1
    17    8   26 1
    18   10   15 ar
    19   10   11 ar
    20   11   12 ar
    21   11   27 1
    22   12   13 ar
    23   12   28 1
    24   13   14 ar
    25   13   19 1
    26   14   15 ar
    27   14   16 1
    28   15   29 1
    29   16   17 2
    30   16   18 am
    31   18   30 1
    32   18   31 1
    33   19   32 1
    34   19   33 1
