@<TRIPOS>MOLECULE
ZINC03888719
   25    27     0     0     0
SMALL
USER_CHARGES
BLAHamine
@<TRIPOS>ATOM
      1 C1         -0.0441    3.8638    0.0272 C.ar      1 <0>        -0.0849
      2 C2          1.2040    3.1979    0.0087 C.ar      1 <0>         0.1404
      3 C3          1.1637    1.7863    0.0005 C.ar      1 <0>        -0.1595
      4 C4         -0.0126    1.0758    0.0080 C.ar      1 <0>        -0.0488
      5 C5         -1.2157    1.7585    0.0173 C.ar      1 <0>         0.0681
      6 C6         -1.2198    3.1505    0.0347 C.ar      1 <0>         0.0921
      7 O1         -2.4160    3.8133    0.0555 O.3       1 <0>        -0.3160
      8 C7         -3.1831    3.6830    1.2528 C.3       1 <0>         0.0597
      9 C8         -4.0225    2.4155    1.2244 C.3       1 <0>        -0.1887
     10 C9         -3.1695    1.1566    1.2191 C.3       1 <0>         0.0584
     11 O2         -2.3968    1.0753    0.0192 O.3       1 <0>        -0.3126
     12 S1          2.8877    1.3571   -0.0193 S.3       1 <0>        -0.0021
     13 C10         3.5344    3.0231   -0.0170 C.2       1 <0>         0.4211
     14 N1          2.4398    3.7482   -0.0017 N.2       1 <0>        -0.5834
     15 N2          4.8504    3.4415   -0.0281 N.pl3     1 <0>        -0.7897
     16 H1         -0.0738    4.9434    0.0357 H         1 <0>         0.1438
     17 H2          0.0021   -0.0041    0.0020 H         1 <0>         0.1452
     18 H3         -2.5087    3.6470    2.1083 H         1 <0>         0.0590
     19 H4         -3.8417    4.5459    1.3520 H         1 <0>         0.1073
     20 H5         -4.6690    2.4003    2.1018 H         1 <0>         0.0930
     21 H6         -4.6449    2.4241    0.3296 H         1 <0>         0.0860
     22 H7         -2.4985    1.1739    2.0779 H         1 <0>         0.0591
     23 H8         -3.8180    0.2832    1.2877 H         1 <0>         0.1073
     24 H9          5.0582    4.3889   -0.0248 H         1 <0>         0.4206
     25 H10         5.5670    2.7878   -0.0391 H         1 <0>         0.4246
@<TRIPOS>BOND
     1    1    6 ar
     2    1    2 ar
     3    1   16 1
     4    2   14 1
     5    2    3 ar
     6    3    4 ar
     7    3   12 1
     8    4    5 ar
     9    4   17 1
    10    5   11 1
    11    5    6 ar
    12    6    7 1
    13    7    8 1
    14    8    9 1
    15    8   18 1
    16    8   19 1
    17    9   10 1
    18    9   20 1
    19    9   21 1
    20   10   11 1
    21   10   22 1
    22   10   23 1
    23   12   13 1
    24   13   14 2
    25   13   15 1
    26   15   24 1
    27   15   25 1
