@<TRIPOS>MOLECULE
ZINC17166637
   76    80     0     0     0
SMALL
USER_CHARGES

@<TRIPOS>ATOM
      1 C1         -2.3088   -2.0689    1.2944 C.ar      1 <0>        -0.0776
      2 C2         -1.4157   -1.1271    1.7646 C.ar      1 <0>        -0.0808
      3 C3         -0.1753   -1.5255    2.2446 C.ar      1 <0>         0.1154
      4 C4          0.1667   -2.8711    2.2520 C.ar      1 <0>        -0.0809
      5 C5         -0.7267   -3.8129    1.7827 C.ar      1 <0>        -0.0783
      6 C6         -1.9665   -3.4144    1.3014 C.ar      1 <0>         0.1121
      7 N1         -2.8742   -4.3715    0.8239 N.am      1 <0>        -0.5210
      8 C7         -3.4415   -5.2902    1.6154 C.2       1 <0>         0.5220
      9 O1         -3.2485   -5.4065    2.8066 O.2       1 <0>        -0.4177
     10 C8         -4.3623   -6.1601    0.7877 C.3       1 <0>        -0.1673
     11 C9         -4.2273   -5.5787   -0.6344 C.3       1 <0>        -0.0136
     12 H1         -5.1879   -5.2048   -0.9888 H         1 <0>         0.1979
     13 C10        -3.2488   -4.4378   -0.4597 C.2       1 <0>         0.5174
     14 O2         -2.8631   -3.7021   -1.3426 O.2       1 <0>        -0.4158
     15 N2         -3.6952   -6.5896   -1.5579 N.4       1 <0>        -0.4954
     16 C11        -3.7223   -6.0629   -2.9290 C.3       1 <0>         0.0216
     17 C12        -5.1884   -5.8205   -3.3420 C.3       1 <0>        -0.1341
     18 C13        -5.2075   -4.8399   -4.4832 C.3       1 <0>        -0.1214
     19 C14        -5.2352   -5.5355   -5.8576 C.3       1 <0>        -0.1264
     20 C15        -4.2945   -6.7535   -5.9298 C.3       1 <0>        -0.1300
     21 C16        -2.9695   -6.4981   -5.2639 C.3       1 <0>        -0.1061
     22 C17        -3.0463   -7.0046   -3.8090 C.3       1 <0>        -0.1561
     23 N3          0.7326   -0.5683    2.7216 N.am      1 <0>        -0.5195
     24 C18         1.9638   -0.4227    2.2166 C.2       1 <0>         0.5217
     25 O3          2.4338   -1.0788    1.3119 O.2       1 <0>        -0.4174
     26 C19         2.6757    0.6908    2.9534 C.3       1 <0>        -0.1672
     27 C20         1.6312    1.1685    3.9828 C.3       1 <0>        -0.0130
     28 H2          1.3729    2.2133    3.8105 H         1 <0>         0.1980
     29 C21         0.4370    0.2785    3.7155 C.2       1 <0>         0.5170
     30 O4         -0.6190    0.3233    4.3092 O.2       1 <0>        -0.4156
     31 N4          2.1304    0.9798    5.3515 N.4       1 <0>        -0.4954
     32 C22         1.1840    1.5752    6.3043 C.3       1 <0>         0.0212
     33 C23         1.1377    3.0998    6.0757 C.3       1 <0>        -0.1339
     34 C24        -0.1464    3.6308    6.6532 C.3       1 <0>        -0.1214
     35 C25         0.0233    4.1408    8.0971 C.3       1 <0>        -0.1264
     36 C26         0.9082    3.2179    8.9566 C.3       1 <0>        -0.1300
     37 C27         0.6169    1.7601    8.7234 C.3       1 <0>        -0.1060
     38 C28         1.5962    1.2291    7.6565 C.3       1 <0>        -0.1561
     39 H3         -3.2754   -1.7594    0.9252 H         1 <0>         0.1450
     40 H4         -1.6818   -0.0804    1.7588 H         1 <0>         0.1452
     41 H5          1.1318   -3.1808    2.6248 H         1 <0>         0.1449
     42 H6         -0.4603   -4.8595    1.7878 H         1 <0>         0.1443
     43 H7         -4.0320   -7.1986    0.8105 H         1 <0>         0.1493
     44 H8         -5.3900   -6.0755    1.1408 H         1 <0>         0.1677
     45 H9         -2.7449   -6.8121   -1.3018 H         1 <0>         0.4298
     46 H10        -3.1888   -5.1127   -2.9522 H         1 <0>         0.1496
     47 H11        -5.6396   -6.7606   -3.6595 H         1 <0>         0.1016
     48 H12        -5.7437   -5.4111   -2.4981 H         1 <0>         0.0830
     49 H13        -6.0904   -4.2076   -4.3901 H         1 <0>         0.0821
     50 H14        -4.3185   -4.2120   -4.4236 H         1 <0>         0.0720
     51 H15        -6.2534   -5.8650   -6.0644 H         1 <0>         0.0705
     52 H16        -4.9388   -4.8166   -6.6215 H         1 <0>         0.0723
     53 H17        -4.7766   -7.6008   -5.4423 H         1 <0>         0.0645
     54 H18        -4.1208   -7.0034   -6.9765 H         1 <0>         0.0755
     55 H19        -2.1829   -7.0326   -5.7966 H         1 <0>         0.0872
     56 H20        -2.7574   -5.4289   -5.2687 H         1 <0>         0.0782
     57 H21        -2.0345   -7.1698   -3.4389 H         1 <0>         0.0853
     58 H22        -3.5852   -7.9519   -3.7930 H         1 <0>         0.0909
     59 H23         3.5645    0.3106    3.4570 H         1 <0>         0.1496
     60 H24         2.9369    1.4979    2.2691 H         1 <0>         0.1680
     61 H25         2.2242   -0.0065    5.5423 H         1 <0>         0.4298
     62 H26         0.1922    1.1619    6.1209 H         1 <0>         0.1499
     63 H27         1.9854    3.5706    6.5735 H         1 <0>         0.1016
     64 H28         1.1735    3.3111    5.0070 H         1 <0>         0.0830
     65 H29        -0.5013    4.4508    6.0290 H         1 <0>         0.0821
     66 H30        -0.8920    2.8358    6.6453 H         1 <0>         0.0720
     67 H31         0.4736    5.1330    8.0688 H         1 <0>         0.0705
     68 H32        -0.9602    4.2166    8.5609 H         1 <0>         0.0723
     69 H33         1.9543    3.4109    8.7189 H         1 <0>         0.0645
     70 H34         0.7395    3.4473   10.0087 H         1 <0>         0.0756
     71 H35         0.7523    1.2065    9.6525 H         1 <0>         0.0872
     72 H36        -0.4077    1.6434    8.3704 H         1 <0>         0.0782
     73 H37         1.6555    0.1440    7.7407 H         1 <0>         0.0852
     74 H38         2.5840    1.6504    7.8431 H         1 <0>         0.0909
     75 H39        -4.2613   -7.4232   -1.5066 H         1 <0>         0.4404
     76 H40         3.0296    1.4277    5.4462 H         1 <0>         0.4406
@<TRIPOS>BOND
     1    1    6 ar
     2    1    2 ar
     3    1   39 1
     4    2    3 ar
     5    2   40 1
     6    3    4 ar
     7    3   23 1
     8    4    5 ar
     9    4   41 1
    10    5    6 ar
    11    5   42 1
    12    6    7 1
    13    7   13 am
    14    7    8 am
    15    8    9 2
    16    8   10 1
    17   10   11 1
    18   10   43 1
    19   10   44 1
    20   11   12 1
    21   11   13 1
    22   11   15 1
    23   13   14 2
    24   15   16 1
    25   15   45 1
    26   15   75 1
    27   16   22 1
    28   16   17 1
    29   16   46 1
    30   17   18 1
    31   17   47 1
    32   17   48 1
    33   18   19 1
    34   18   49 1
    35   18   50 1
    36   19   20 1
    37   19   51 1
    38   19   52 1
    39   20   21 1
    40   20   53 1
    41   20   54 1
    42   21   22 1
    43   21   55 1
    44   21   56 1
    45   22   57 1
    46   22   58 1
    47   23   29 am
    48   23   24 am
    49   24   25 2
    50   24   26 1
    51   26   27 1
    52   26   59 1
    53   26   60 1
    54   27   28 1
    55   27   29 1
    56   27   31 1
    57   29   30 2
    58   31   32 1
    59   31   61 1
    60   31   76 1
    61   32   38 1
    62   32   33 1
    63   32   62 1
    64   33   34 1
    65   33   63 1
    66   33   64 1
    67   34   35 1
    68   34   65 1
    69   34   66 1
    70   35   36 1
    71   35   67 1
    72   35   68 1
    73   36   37 1
    74   36   69 1
    75   36   70 1
    76   37   38 1
    77   37   71 1
    78   37   72 1
    79   38   73 1
    80   38   74 1
