@<TRIPOS>MOLECULE
ZINC56210505
   43    45     0     0     0
SMALL
USER_CHARGES

@<TRIPOS>ATOM
      1 C1         -0.0192    1.4247   -0.0201 C.3       1 <0>         0.0225
      2 O1          0.0005   -0.0042   -0.0238 O.3       1 <0>        -0.3041
      3 C2         -1.2000   -0.6370   -0.0233 C.ar      1 <0>         0.1633
      4 C3         -2.3746    0.0988   -0.0249 C.ar      1 <0>        -0.2001
      5 C4         -3.5963   -0.5457   -0.0239 C.ar      1 <0>        -0.0522
      6 C5         -3.6594   -1.9310   -0.0211 C.ar      1 <0>        -0.0761
      7 C6         -2.5020   -2.6798   -0.0194 C.ar      1 <0>        -0.0517
      8 C7         -1.2578   -2.0396   -0.0268 C.ar      1 <0>        -0.1015
      9 C8         -0.0194   -2.8304   -0.0312 C.2       1 <0>         0.0117
     10 C9         -0.0798   -4.1793   -0.0346 C.2       1 <0>        -0.2264
     11 C10         1.1524   -4.9662   -0.0390 C.2       1 <0>         0.5482
     12 O2          2.2329   -4.4052   -0.0395 O.2       1 <0>        -0.5031
     13 N1          1.0921   -6.3126   -0.0424 N.am      1 <0>        -0.6655
     14 C11         2.2657   -7.0652   -0.1633 C.ar      1 <0>         0.1569
     15 C12         3.3828   -6.5165   -0.7766 C.ar      1 <0>        -0.1504
     16 C13         4.5446   -7.2655   -0.8943 C.ar      1 <0>         0.1981
     17 C14         4.5875   -8.5621   -0.3984 C.ar      1 <0>        -0.1496
     18 C15         3.4743   -9.1076    0.2123 C.ar      1 <0>        -0.0978
     19 C16         2.3157   -8.3624    0.3363 C.ar      1 <0>         0.0406
     20 F1          1.2306   -8.8964    0.9384 F         1 <0>        -0.1367
     21 N2          5.6737   -6.7144   -1.5133 N.am      1 <0>        -0.5740
     22 C17         6.9715   -7.3884   -1.7156 C.3       1 <0>         0.0574
     23 C18         7.6590   -6.4696   -2.7533 C.3       1 <0>         0.0388
     24 O3          6.9885   -5.2134   -2.5330 O.3       1 <0>        -0.3184
     25 C19         5.7682   -5.4772   -2.0357 C.2       1 <0>         0.6398
     26 O4          4.8488   -4.6828   -2.0531 O.2       1 <0>        -0.4781
     27 Cl1        -5.2029   -2.7257   -0.0192 Cl        1 <0>        -0.0629
     28 H1          1.0033    1.8021   -0.0210 H         1 <0>         0.1074
     29 H2         -0.5396    1.7832   -0.9082 H         1 <0>         0.0610
     30 H3         -0.5364    1.7785    0.8718 H         1 <0>         0.0608
     31 H4         -2.3346    1.1780   -0.0267 H         1 <0>         0.1439
     32 H5         -4.5082    0.0329   -0.0248 H         1 <0>         0.1408
     33 H6         -2.5555   -3.7585   -0.0166 H         1 <0>         0.1462
     34 H7          0.9391   -2.3328   -0.0317 H         1 <0>         0.1466
     35 H8         -1.0383   -4.6769   -0.0341 H         1 <0>         0.1332
     36 H9          0.2353   -6.7599    0.0390 H         1 <0>         0.4172
     37 H10         3.3478   -5.5082   -1.1621 H         1 <0>         0.1915
     38 H11         5.4921   -9.1450   -0.4904 H         1 <0>         0.1381
     39 H12         3.5104  -10.1161    0.5971 H         1 <0>         0.1476
     40 H13         7.5414   -7.4196   -0.7871 H         1 <0>         0.1010
     41 H14         6.8293   -8.3910   -2.1189 H         1 <0>         0.1092
     42 H15         8.7262   -6.3823   -2.5492 H         1 <0>         0.1278
     43 H16         7.4864   -6.8303   -3.7673 H         1 <0>         0.0988
@<TRIPOS>BOND
     1    1    2 1
     2    1   28 1
     3    1   29 1
     4    1   30 1
     5    2    3 1
     6    3    8 ar
     7    3    4 ar
     8    4    5 ar
     9    4   31 1
    10    5    6 ar
    11    5   32 1
    12    6    7 ar
    13    6   27 1
    14    7    8 ar
    15    7   33 1
    16    8    9 1
    17    9   10 2
    18    9   34 1
    19   10   11 1
    20   10   35 1
    21   11   12 2
    22   11   13 am
    23   13   14 1
    24   13   36 1
    25   14   19 ar
    26   14   15 ar
    27   15   16 ar
    28   15   37 1
    29   16   17 ar
    30   16   21 1
    31   17   18 ar
    32   17   38 1
    33   18   19 ar
    34   18   39 1
    35   19   20 1
    36   21   25 am
    37   21   22 1
    38   22   23 1
    39   22   40 1
    40   22   41 1
    41   23   24 1
    42   23   42 1
    43   23   43 1
    44   24   25 1
    45   25   26 2
