@<TRIPOS>MOLECULE
ZINC44170730
   61    64     0     0     0
SMALL
USER_CHARGES

@<TRIPOS>ATOM
      1 C1          0.9575   -0.6899   -0.9765 C.3       1 <0>        -0.1804
      2 C2          0.0021   -0.0041    0.0020 C.3       1 <0>         0.1343
      3 C3         -0.0033    1.5030   -0.2621 C.3       1 <0>        -0.1412
      4 C4         -1.4102   -0.5605   -0.1896 C.3       1 <0>         0.0523
      5 H1         -1.7702   -0.3569   -1.1981 H         1 <0>         0.1026
      6 C5         -1.4464   -2.0779    0.1092 C.3       1 <0>        -0.0954
      7 C6         -2.8056   -2.2354    0.7633 C.ar      1 <0>        -0.2294
      8 C7         -3.2371   -0.9596    1.1205 C.ar      1 <0>         0.1926
      9 C8         -4.4749   -0.8017    1.7379 C.ar      1 <0>        -0.1721
     10 C9         -5.2722   -1.9023    2.0026 C.ar      1 <0>         0.2042
     11 C10        -4.8247   -3.1863    1.6446 C.ar      1 <0>        -0.2804
     12 C11        -3.5805   -3.3457    1.0204 C.ar      1 <0>         0.2388
     13 O1         -3.1426   -4.5819    0.6717 O.3       1 <0>        -0.3196
     14 C12        -2.3774   -5.2972    1.6438 C.3       1 <0>         0.0487
     15 C13        -5.6907   -4.3377    1.9408 C.2       1 <0>         0.4263
     16 O2         -5.3554   -5.4751    1.6552 O.2       1 <0>        -0.4537
     17 C14        -6.9350   -4.0693    2.5744 C.2       1 <0>        -0.3013
     18 C15        -7.2672   -2.8017    2.8731 C.2       1 <0>         0.1658
     19 O3         -6.4741   -1.7596    2.6005 O.3       1 <0>        -0.2026
     20 C16        -8.5913   -2.5430    3.5447 C.3       1 <0>         0.1076
     21 O4         -8.3665   -2.0214    4.8559 O.3       1 <0>        -0.3680
     22 C17        -9.5643   -1.7401    5.5828 C.3       1 <0>         0.2157
     23 H2        -10.1858   -2.6348    5.6195 H         1 <0>         0.1087
     24 C18        -9.2073   -1.3075    7.0073 C.3       1 <0>         0.0582
     25 H3         -8.6229   -2.0907    7.4901 H         1 <0>         0.0814
     26 C19        -8.3846   -0.0167    6.9495 C.3       1 <0>         0.0835
     27 H4         -8.1746    0.3274    7.9622 H         1 <0>         0.0723
     28 C20        -9.1853    1.0530    6.2005 C.3       1 <0>         0.0954
     29 H5        -10.0989    1.2764    6.7514 H         1 <0>         0.0846
     30 C21        -9.5431    0.5292    4.8072 C.3       1 <0>         0.1035
     31 H6         -8.6292    0.3443    4.2426 H         1 <0>         0.0933
     32 O5        -10.2806   -0.6886    4.9322 O.3       1 <0>        -0.3657
     33 C22       -10.3940    1.5684    4.0744 C.3       1 <0>         0.0869
     34 O6        -10.6302    1.1315    2.7345 O.3       1 <0>        -0.5680
     35 O7         -8.3989    2.2399    6.0784 O.3       1 <0>        -0.5487
     36 O8         -7.1554   -0.2636    6.2640 O.3       1 <0>        -0.5238
     37 O9        -10.4057   -1.0785    7.7512 O.3       1 <0>        -0.5412
     38 O10        -2.3091   -0.0164    0.7913 O.3       1 <0>        -0.2719
     39 O11         0.4338   -0.2513    1.3416 O.3       1 <0>        -0.5456
     40 H7          1.9637   -0.2935   -0.8401 H         1 <0>         0.0772
     41 H8          0.9614   -1.7636   -0.7884 H         1 <0>         0.0643
     42 H9          0.6282   -0.5013   -1.9984 H         1 <0>         0.0731
     43 H10        -0.3855    1.6947   -1.2647 H         1 <0>         0.0731
     44 H11        -0.6408    1.9979    0.4705 H         1 <0>         0.0721
     45 H12         1.0124    1.8898   -0.1803 H         1 <0>         0.0691
     46 H13        -1.3877   -2.6578   -0.8119 H         1 <0>         0.1028
     47 H14        -0.6483   -2.3589    0.7964 H         1 <0>         0.0894
     48 H15        -4.8153    0.1858    2.0125 H         1 <0>         0.1545
     49 H16        -2.0911   -6.2676    1.2384 H         1 <0>         0.1005
     50 H17        -1.4813   -4.7281    1.8913 H         1 <0>         0.0446
     51 H18        -2.9762   -5.4414    2.5431 H         1 <0>         0.0508
     52 H19        -7.6089   -4.8786    2.8137 H         1 <0>         0.1623
     53 H20        -9.1608   -1.8212    2.9592 H         1 <0>         0.0947
     54 H21        -9.1510   -3.4757    3.6156 H         1 <0>         0.0949
     55 H22       -11.3465    1.6876    4.5909 H         1 <0>         0.0518
     56 H23        -9.8677    2.5227    4.0580 H         1 <0>         0.0725
     57 H24       -11.1647    1.7431    2.2098 H         1 <0>         0.3821
     58 H25        -8.1326    2.6241    6.9250 H         1 <0>         0.3835
     59 H26        -6.6004   -0.9365    6.6815 H         1 <0>         0.3783
     60 H27       -10.9778   -1.8547    7.8241 H         1 <0>         0.3880
     61 H28         0.4616   -1.1882    1.5793 H         1 <0>         0.3729
@<TRIPOS>BOND
     1    1    2 1
     2    1   40 1
     3    1   41 1
     4    1   42 1
     5    2    3 1
     6    2    4 1
     7    2   39 1
     8    3   43 1
     9    3   44 1
    10    3   45 1
    11    4    5 1
    12    4   38 1
    13    4    6 1
    14    6    7 1
    15    6   46 1
    16    6   47 1
    17    7   12 ar
    18    7    8 ar
    19    8    9 ar
    20    8   38 1
    21    9   10 ar
    22    9   48 1
    23   10   19 1
    24   10   11 ar
    25   11   12 ar
    26   11   15 1
    27   12   13 1
    28   13   14 1
    29   14   49 1
    30   14   50 1
    31   14   51 1
    32   15   16 2
    33   15   17 1
    34   17   18 2
    35   17   52 1
    36   18   19 1
    37   18   20 1
    38   20   21 1
    39   20   53 1
    40   20   54 1
    41   21   22 1
    42   22   23 1
    43   22   32 1
    44   22   24 1
    45   24   25 1
    46   24   26 1
    47   24   37 1
    48   26   27 1
    49   26   28 1
    50   26   36 1
    51   28   29 1
    52   28   30 1
    53   28   35 1
    54   30   31 1
    55   30   32 1
    56   30   33 1
    57   33   34 1
    58   33   55 1
    59   33   56 1
    60   34   57 1
    61   35   58 1
    62   36   59 1
    63   37   60 1
    64   39   61 1
