@<TRIPOS>MOLECULE
ZINC13538919
   56    60     0     0     0
SMALL
USER_CHARGES
1-acetyl-N-[2-[(3-phenyl-[1,2,4]triazolo[3,4-f]pyridazin-6-yl)oxy]ethyl]indoline-5-sulfonamide
@<TRIPOS>ATOM
      1 C1          0.7445    5.8690    0.0253 C.3       1 <0>        -0.1703
      2 C2          0.3989    4.4021    0.0213 C.2       1 <0>         0.5218
      3 O1         -0.7625    4.0527    0.0308 O.2       1 <0>        -0.5121
      4 N1          1.3804    3.4786    0.0071 N.am      1 <0>        -0.5598
      5 C3          2.8149    3.7774   -0.0053 C.3       1 <0>         0.0970
      6 C4          3.5121    2.4073   -0.0199 C.3       1 <0>        -0.0865
      7 C5          2.3806    1.4042   -0.0135 C.ar      1 <0>        -0.1594
      8 C6          1.1791    2.0948    0.0021 C.ar      1 <0>         0.2037
      9 C7         -0.0166    1.3746    0.0096 C.ar      1 <0>        -0.1526
     10 C8          0.0021   -0.0041    0.0020 C.ar      1 <0>         0.0111
     11 C9          1.2060   -0.6837   -0.0136 C.ar      1 <0>        -0.7017
     12 C10         2.3945    0.0229   -0.0211 C.ar      1 <0>         0.0201
     13 S1          1.2256   -2.4455   -0.0232 S.o2      1 <0>         2.6997
     14 O2          2.4808   -2.8406    0.5131 O.2       1 <0>        -0.9540
     15 O3         -0.0096   -2.8685    0.5376 O.2       1 <0>        -0.9525
     16 N2          1.2154   -2.9266   -1.6078 N.pl3     1 <0>        -1.1177
     17 C11         2.3534   -2.6135   -2.4757 C.3       1 <0>         0.1192
     18 C12         2.2771   -3.4658   -3.7440 C.3       1 <0>         0.0490
     19 O4          1.1173   -3.1002   -4.4946 O.3       1 <0>        -0.2785
     20 C13         0.9003   -3.7664   -5.6567 C.2       1 <0>         0.3614
     21 C14        -0.2284   -3.4542   -6.4360 C.2       1 <0>        -0.1581
     22 C15        -0.4534   -4.1112   -7.6058 C.2       1 <0>         0.0252
     23 C16         0.4491   -5.1098   -8.0152 C.2       1 <0>         0.1262
     24 N3          0.5095   -5.9130   -9.0675 N.2       1 <0>        -0.2370
     25 N4          1.5519   -6.6627   -8.9792 N.2       1 <0>        -0.2411
     26 C17         2.2166   -6.3862   -7.8725 C.2       1 <0>         0.2545
     27 N5          1.5378   -5.3942   -7.2288 N.pl3     1 <0>        -0.2703
     28 N6          1.7426   -4.6970   -6.0367 N.2       1 <0>        -0.3271
     29 C18         3.4649   -7.0320   -7.4161 C.ar      1 <0>        -0.0288
     30 C19         4.2315   -6.4429   -6.4089 C.ar      1 <0>        -0.0892
     31 C20         5.3927   -7.0541   -5.9835 C.ar      1 <0>        -0.1221
     32 C21         5.8044   -8.2422   -6.5609 C.ar      1 <0>        -0.0992
     33 C22         5.0522   -8.8287   -7.5632 C.ar      1 <0>        -0.1206
     34 C23         3.8859   -8.2311   -7.9940 C.ar      1 <0>        -0.0718
     35 H1          0.8179    6.2278   -1.0013 H         1 <0>         0.1024
     36 H2         -0.0334    6.4241    0.5496 H         1 <0>         0.1025
     37 H3          1.6990    6.0160    0.5307 H         1 <0>         0.0859
     38 H4          3.0756    4.3432   -0.8998 H         1 <0>         0.0910
     39 H5          3.0926    4.3357    0.8887 H         1 <0>         0.0912
     40 H6          4.1318    2.2870    0.8687 H         1 <0>         0.0983
     41 H7          4.1138    2.2960   -0.9220 H         1 <0>         0.0978
     42 H8         -0.9605    1.8995    0.0169 H         1 <0>         0.1493
     43 H9         -0.9269   -0.5549    0.0079 H         1 <0>         0.1469
     44 H10         3.3358   -0.5064   -0.0333 H         1 <0>         0.1443
     45 H11         0.4560   -3.4157   -1.9612 H         1 <0>         0.4234
     46 H12         2.3250   -1.5577   -2.7452 H         1 <0>         0.0823
     47 H13         3.2826   -2.8291   -1.9484 H         1 <0>         0.1099
     48 H14         3.1686   -3.2985   -4.3484 H         1 <0>         0.0928
     49 H15         2.2159   -4.5192   -3.4707 H         1 <0>         0.0887
     50 H16        -0.9153   -2.6885   -6.1071 H         1 <0>         0.1721
     51 H17        -1.3163   -3.8726   -8.2100 H         1 <0>         0.1813
     52 H18         3.9139   -5.5129   -5.9610 H         1 <0>         0.1325
     53 H19         5.9845   -6.6015   -5.2016 H         1 <0>         0.1297
     54 H20         6.7169   -8.7140   -6.2275 H         1 <0>         0.1286
     55 H21         5.3790   -9.7563   -8.0095 H         1 <0>         0.1329
     56 H22         3.2996   -8.6899   -8.7765 H         1 <0>         0.1378
@<TRIPOS>BOND
     1    1    2 1
     2    1   35 1
     3    1   36 1
     4    1   37 1
     5    2    3 2
     6    2    4 am
     7    4    8 1
     8    4    5 1
     9    5    6 1
    10    5   38 1
    11    5   39 1
    12    6    7 1
    13    6   40 1
    14    6   41 1
    15    7   12 ar
    16    7    8 ar
    17    8    9 ar
    18    9   10 ar
    19    9   42 1
    20   10   11 ar
    21   10   43 1
    22   11   12 ar
    23   11   13 1
    24   12   44 1
    25   13   14 2
    26   13   15 2
    27   13   16 1
    28   16   17 1
    29   16   45 1
    30   17   18 1
    31   17   46 1
    32   17   47 1
    33   18   19 1
    34   18   48 1
    35   18   49 1
    36   19   20 1
    37   20   28 2
    38   20   21 1
    39   21   22 2
    40   21   50 1
    41   22   23 1
    42   22   51 1
    43   23   27 1
    44   23   24 2
    45   24   25 1
    46   25   26 2
    47   26   27 1
    48   26   29 1
    49   27   28 1
    50   29   34 ar
    51   29   30 ar
    52   30   31 ar
    53   30   52 1
    54   31   32 ar
    55   31   53 1
    56   32   33 ar
    57   32   54 1
    58   33   34 ar
    59   33   55 1
    60   34   56 1
