@<TRIPOS>MOLECULE
ZINC35964867
   72    75     0     0     0
SMALL
USER_CHARGES

@<TRIPOS>ATOM
      1 C1          0.3424    2.0567    1.4499 C.3       1 <0>        -0.1532
      2 C2          0.2385    0.5413    1.2671 C.3       1 <0>         0.0596
      3 O1          1.0524   -0.1131    2.2426 O.3       1 <0>        -0.3511
      4 C3          1.0725   -1.4550    2.2184 C.2       1 <0>         0.4650
      5 O2          0.4206   -2.0542    1.3963 O.2       1 <0>        -0.5039
      6 C4          1.9080   -2.2142    3.2167 C.3       1 <0>        -0.0791
      7 C5          1.4416   -1.8754    4.6344 C.3       1 <0>        -0.1256
      8 C6          2.3155   -2.6220    5.6472 C.3       1 <0>         0.1161
      9 N1          2.2876   -4.0562    5.3293 N.am      1 <0>        -0.6161
     10 C7          2.6311   -4.4846    3.9665 C.3       1 <0>         0.1027
     11 C8          1.7537   -3.7171    2.9726 C.3       1 <0>        -0.1212
     12 C9          1.9537   -4.9617    6.2701 C.2       1 <0>         0.5028
     13 O3          1.7667   -4.6063    7.4145 O.2       1 <0>        -0.4985
     14 C10         1.8126   -6.4157    5.9000 C.3       1 <0>         0.1613
     15 H1          1.3066   -6.4984    4.9382 H         1 <0>         0.1154
     16 C11         3.1996   -7.0542    5.8031 C.3       1 <0>        -0.1298
     17 C12         3.0650   -8.4922    5.2984 C.3       1 <0>        -0.0928
     18 C13         2.5233   -8.4819    3.8675 C.3       1 <0>        -0.1542
     19 C14         4.4362   -9.1707    5.3197 C.3       1 <0>        -0.1473
     20 N2          1.0275   -7.1068    6.9258 N.am      1 <0>        -0.6110
     21 C15        -0.2442   -7.8159    6.7205 C.3       1 <0>         0.1447
     22 C16        -0.6216   -8.3411    8.0875 C.2       1 <0>         0.1689
     23 C17         0.3559   -7.9468    8.9286 C.2       1 <0>        -0.2752
     24 C18         1.3386   -7.2158    8.2301 C.2       1 <0>         0.5855
     25 O4          2.3371   -6.7426    8.7413 O.2       1 <0>        -0.4918
     26 C19         0.2324   -8.3410   10.3866 C.3       1 <0>         0.2525
     27 H2          1.1179   -8.9169   10.6552 H         1 <0>         0.0964
     28 N3         -0.9533   -9.1276   10.7663 N.am      1 <0>        -0.7080
     29 C20        -1.8463   -9.4462    9.8085 C.2       1 <0>         0.7119
     30 O5         -2.8284  -10.0949   10.1123 O.2       1 <0>        -0.5565
     31 N4         -1.6868   -9.0708    8.5327 N.am      1 <0>        -0.5270
     32 C21        -2.7111   -9.4638    7.5619 C.3       1 <0>         0.0722
     33 C22         0.2357   -7.0795   11.2109 C.ar      1 <0>        -0.0945
     34 C23        -0.0192   -5.8607   10.6106 C.ar      1 <0>        -0.0661
     35 C24        -0.0162   -4.7035   11.3666 C.ar      1 <0>        -0.1095
     36 C25         0.2418   -4.7643   12.7236 C.ar      1 <0>        -0.1009
     37 C26         0.4968   -5.9822   13.3248 C.ar      1 <0>        -0.1113
     38 C27         0.4883   -7.1416   12.5696 C.ar      1 <0>        -0.0260
     39 Cl1         0.8021   -8.6726   13.3254 Cl        1 <0>        -0.0695
     40 H3          1.3797    2.3675    1.3251 H         1 <0>         0.0675
     41 H4         -0.2783    2.5558    0.7058 H         1 <0>         0.0806
     42 H5         -0.0000    2.3266    2.4489 H         1 <0>         0.0673
     43 H6         -0.7988    0.2305    1.3919 H         1 <0>         0.0676
     44 H7          0.5810    0.2714    0.2681 H         1 <0>         0.0681
     45 H8          2.9549   -1.9333    3.1022 H         1 <0>         0.1141
     46 H9          1.5298   -0.8016    4.7995 H         1 <0>         0.0925
     47 H10         0.4019   -2.1787    4.7576 H         1 <0>         0.0733
     48 H11         3.3398   -2.2543    5.5871 H         1 <0>         0.0744
     49 H12         1.9263   -2.4630    6.6529 H         1 <0>         0.0999
     50 H13         3.6812   -4.2687    3.7694 H         1 <0>         0.0795
     51 H14         2.4502   -5.5545    3.8633 H         1 <0>         0.0927
     52 H15         0.7111   -4.0031    3.1114 H         1 <0>         0.0789
     53 H16         2.0640   -3.9541    1.9549 H         1 <0>         0.0897
     54 H17         3.8154   -6.4818    5.1094 H         1 <0>         0.0825
     55 H18         3.6679   -7.0569    6.7874 H         1 <0>         0.0916
     56 H19         2.3781   -9.0407    5.9429 H         1 <0>         0.0717
     57 H20         3.2102   -7.9334    3.2230 H         1 <0>         0.0593
     58 H21         2.4274   -9.5064    3.5079 H         1 <0>         0.0601
     59 H22         1.5465   -7.9985    3.8523 H         1 <0>         0.0519
     60 H23         4.8220   -9.1781    6.3391 H         1 <0>         0.0563
     61 H24         4.3402  -10.1952    4.9601 H         1 <0>         0.0570
     62 H25         5.1230   -8.6222    4.6752 H         1 <0>         0.0563
     63 H26        -1.0069   -7.1284    6.3548 H         1 <0>         0.1088
     64 H27        -0.1096   -8.6411    6.0212 H         1 <0>         0.1128
     65 H28        -1.0883   -9.4101   11.6844 H         1 <0>         0.4331
     66 H29        -2.4504  -10.4298    7.1296 H         1 <0>         0.0748
     67 H30        -3.6765   -9.5385    8.0625 H         1 <0>         0.0971
     68 H31        -2.7687   -8.7156    6.7714 H         1 <0>         0.0827
     69 H32        -0.2205   -5.8125    9.5506 H         1 <0>         0.1267
     70 H33        -0.2151   -3.7515   10.8971 H         1 <0>         0.1283
     71 H34         0.2444   -3.8598   13.3137 H         1 <0>         0.1328
     72 H35         0.6987   -6.0295   14.3847 H         1 <0>         0.1352
@<TRIPOS>BOND
     1    1    2 1
     2    1   40 1
     3    1   41 1
     4    1   42 1
     5    2    3 1
     6    2   43 1
     7    2   44 1
     8    3    4 1
     9    4    5 2
    10    4    6 1
    11    6   11 1
    12    6    7 1
    13    6   45 1
    14    7    8 1
    15    7   46 1
    16    7   47 1
    17    8    9 1
    18    8   48 1
    19    8   49 1
    20    9   10 1
    21    9   12 am
    22   10   11 1
    23   10   50 1
    24   10   51 1
    25   11   52 1
    26   11   53 1
    27   12   13 2
    28   12   14 1
    29   14   15 1
    30   14   16 1
    31   14   20 1
    32   16   17 1
    33   16   54 1
    34   16   55 1
    35   17   18 1
    36   17   19 1
    37   17   56 1
    38   18   57 1
    39   18   58 1
    40   18   59 1
    41   19   60 1
    42   19   61 1
    43   19   62 1
    44   20   24 am
    45   20   21 1
    46   21   22 1
    47   21   63 1
    48   21   64 1
    49   22   31 1
    50   22   23 2
    51   23   24 1
    52   23   26 1
    53   24   25 2
    54   26   27 1
    55   26   28 1
    56   26   33 1
    57   28   29 am
    58   28   65 1
    59   29   30 2
    60   29   31 am
    61   31   32 1
    62   32   66 1
    63   32   67 1
    64   32   68 1
    65   33   38 ar
    66   33   34 ar
    67   34   35 ar
    68   34   69 1
    69   35   36 ar
    70   35   70 1
    71   36   37 ar
    72   36   71 1
    73   37   38 ar
    74   37   72 1
    75   38   39 1
