@<TRIPOS>MOLECULE
ZINC40283933
   58    62     0     0     0
SMALL
USER_CHARGES

@<TRIPOS>ATOM
      1 C1         -0.7233    1.4341    0.4877 C.3       1 <0>        -0.0824
      2 C2         -0.5947   -0.0648    0.3998 C.2       1 <0>         0.1534
      3 C3         -0.3553   -0.7935   -0.7563 C.2       1 <0>        -0.2527
      4 C4         -0.3028   -2.1193   -0.4176 C.2       1 <0>         0.3474
      5 N1         -0.5136   -2.2087    0.9128 N.pl3     1 <0>        -0.3223
      6 N2         -0.6843   -0.9043    1.4049 N.2       1 <0>        -0.2697
      7 C5         -0.5499   -3.3864    1.6655 C.2       1 <0>         0.4331
      8 C6         -0.7873   -3.3180    3.0512 C.2       1 <0>        -0.1596
      9 C7         -0.8249   -4.4563    3.7939 C.2       1 <0>         0.0292
     10 C8         -0.6239   -5.6959    3.1581 C.2       1 <0>         0.1239
     11 N3         -0.5992   -6.9494    3.5814 N.2       1 <0>        -0.2334
     12 N4         -0.3724   -7.7302    2.5832 N.2       1 <0>        -0.2508
     13 C9         -0.2414   -7.0312    1.4829 C.2       1 <0>         0.2164
     14 N5         -0.3945   -5.7286    1.8040 N.pl3     1 <0>        -0.2767
     15 N6         -0.3677   -4.5408    1.0704 N.2       1 <0>        -0.3135
     16 C10         0.0321   -7.5816    0.1070 C.3       1 <0>        -0.0702
     17 N7         -0.0551   -3.1128   -1.3633 N.am      1 <0>        -0.6440
     18 C11         0.3353   -2.7317   -2.5981 C.2       1 <0>         0.5348
     19 O1          0.3731   -3.5594   -3.4839 O.2       1 <0>        -0.4995
     20 C12         0.7250   -1.3144   -2.9094 C.3       1 <0>        -0.1353
     21 C13        -0.1761   -0.3160   -2.1752 C.3       1 <0>         0.0437
     22 H1          0.2909    0.6688   -2.1751 H         1 <0>         0.1127
     23 C14        -1.5168   -0.2430   -2.8595 C.ar      1 <0>        -0.0796
     24 C15        -2.2911   -1.3816   -2.9830 C.ar      1 <0>        -0.1090
     25 C16        -3.5217   -1.3198   -3.6098 C.ar      1 <0>        -0.1664
     26 C17        -3.9818   -0.1146   -4.1156 C.ar      1 <0>         0.1013
     27 C18        -3.2026    1.0316   -3.9909 C.ar      1 <0>         0.1105
     28 C19        -1.9722    0.9637   -3.3572 C.ar      1 <0>        -0.1638
     29 O2         -3.6498    2.2168   -4.4857 O.3       1 <0>        -0.2977
     30 C20        -2.7504    3.3256   -4.4258 C.3       1 <0>         0.0754
     31 C21        -3.1123    4.3354   -5.5167 C.3       1 <0>        -0.1499
     32 C22        -2.8578    3.9958   -3.0546 C.3       1 <0>        -0.1815
     33 O3         -5.1919   -0.0521   -4.7330 O.3       1 <0>        -0.3046
     34 C23        -5.9368   -1.2682   -4.8250 C.3       1 <0>         0.0255
     35 H2          0.2585    1.8733    0.6646 H         1 <0>         0.0918
     36 H3         -1.1305    1.8192   -0.4472 H         1 <0>         0.0874
     37 H4         -1.3910    1.6939    1.3091 H         1 <0>         0.0848
     38 H5         -0.9394   -2.3597    3.5253 H         1 <0>         0.1783
     39 H6         -1.0063   -4.4099    4.8576 H         1 <0>         0.1832
     40 H7         -0.9126   -7.7917   -0.3947 H         1 <0>         0.0940
     41 H8          0.5959   -6.8499   -0.4716 H         1 <0>         0.0845
     42 H9          0.6107   -8.5014    0.1920 H         1 <0>         0.1046
     43 H10        -0.1598   -4.0511   -1.1405 H         1 <0>         0.4230
     44 H11         1.7591   -1.1534   -2.6048 H         1 <0>         0.1150
     45 H12         0.6405   -1.1487   -3.9834 H         1 <0>         0.1203
     46 H13        -1.9337   -2.3216   -2.5891 H         1 <0>         0.1141
     47 H14        -4.1243   -2.2109   -3.7056 H         1 <0>         0.1334
     48 H15        -1.3672    1.8525   -3.2558 H         1 <0>         0.1412
     49 H16        -1.7300    2.9745   -4.5797 H         1 <0>         0.0734
     50 H17        -4.1326    4.6865   -5.3628 H         1 <0>         0.0676
     51 H18        -2.4262    5.1812   -5.4710 H         1 <0>         0.0776
     52 H19        -3.0358    3.8579   -6.4936 H         1 <0>         0.0652
     53 H20        -2.5999    3.2764   -2.2774 H         1 <0>         0.0629
     54 H21        -2.1717    4.8416   -3.0088 H         1 <0>         0.0733
     55 H22        -3.8781    4.3469   -2.9007 H         1 <0>         0.0682
     56 H23        -5.3607   -2.0057   -5.3838 H         1 <0>         0.0553
     57 H24        -6.1383   -1.6476   -3.8233 H         1 <0>         0.0539
     58 H25        -6.8796   -1.0788   -5.3383 H         1 <0>         0.1022
@<TRIPOS>BOND
     1    1    2 1
     2    1   35 1
     3    1   36 1
     4    1   37 1
     5    2    6 2
     6    2    3 1
     7    3   21 1
     8    3    4 2
     9    4    5 1
    10    4   17 1
    11    5    6 1
    12    5    7 1
    13    7   15 2
    14    7    8 1
    15    8    9 2
    16    8   38 1
    17    9   10 1
    18    9   39 1
    19   10   14 1
    20   10   11 2
    21   11   12 1
    22   12   13 2
    23   13   14 1
    24   13   16 1
    25   14   15 1
    26   16   40 1
    27   16   41 1
    28   16   42 1
    29   17   18 am
    30   17   43 1
    31   18   19 2
    32   18   20 1
    33   20   21 1
    34   20   44 1
    35   20   45 1
    36   21   22 1
    37   21   23 1
    38   23   28 ar
    39   23   24 ar
    40   24   25 ar
    41   24   46 1
    42   25   26 ar
    43   25   47 1
    44   26   27 ar
    45   26   33 1
    46   27   28 ar
    47   27   29 1
    48   28   48 1
    49   29   30 1
    50   30   31 1
    51   30   32 1
    52   30   49 1
    53   31   50 1
    54   31   51 1
    55   31   52 1
    56   32   53 1
    57   32   54 1
    58   32   55 1
    59   33   34 1
    60   34   56 1
    61   34   57 1
    62   34   58 1
