@<TRIPOS>MOLECULE
ZINC19324338
   48    51     0     0     0
SMALL
USER_CHARGES

@<TRIPOS>ATOM
      1 C1         -0.8421    0.9643   -0.4815 C.3       1 <0>        -0.1238
      2 C2          0.4915    1.6907   -0.6515 C.3       1 <0>        -0.1158
      3 C3          1.3441    1.5258    0.5909 C.3       1 <0>        -0.1547
      4 C4          1.4013    0.1538    1.1629 C.3       1 <0>         0.2785
      5 C5          0.1872   -0.7529    1.0207 C.3       1 <0>        -0.1035
      6 H1         -0.4756   -0.6675    1.8819 H         1 <0>         0.1759
      7 C6         -0.5551   -0.5253   -0.2958 C.3       1 <0>        -0.1011
      8 C7          0.8458   -2.1412    0.9520 C.3       1 <0>         0.1656
      9 C8          0.7477   -2.9197    2.2441 C.2       1 <0>         0.1151
     10 N1         -0.0442   -2.5788    3.1896 N.2       1 <0>        -0.2833
     11 O1         -1.1775   -1.7775    2.9096 O.3       1 <0>        -0.3923
     12 C9          1.6545   -4.1358    2.3422 C.3       1 <0>        -0.0722
     13 C10         3.1155   -3.7473    2.1313 C.3       1 <0>        -0.1157
     14 C11         3.3175   -3.0194    0.7921 C.3       1 <0>        -0.0726
     15 C12         2.3352   -1.8627    0.7874 C.2       1 <0>         0.1174
     16 N2          2.5825   -0.6240    0.8149 N.pl3     1 <0>        -0.1333
     17 O2          3.8525   -0.0608    0.5410 O.3       1 <0>        -0.5215
     18 O3          0.3380   -2.8935   -0.1517 O.3       1 <0>        -0.5173
     19 N3          1.5212    0.3567    2.6129 N.3       1 <0>        -0.5426
     20 C13         0.3344    1.0386    3.1494 C.3       1 <0>         0.0032
     21 C14         0.4742    1.1760    4.6678 C.3       1 <0>         0.0678
     22 O4          1.6838    1.8772    4.9686 O.3       1 <0>        -0.3823
     23 C15         2.8597    1.2405    4.4615 C.3       1 <0>         0.0675
     24 C16         2.7441    1.1038    2.9410 C.3       1 <0>        -0.0025
     25 H2         -1.3619    1.3506    0.3953 H         1 <0>         0.0652
     26 H3         -1.4571    1.1124   -1.3691 H         1 <0>         0.0754
     27 H4          1.0208    1.2767   -1.5098 H         1 <0>         0.0652
     28 H5          0.3054    2.7509   -0.8231 H         1 <0>         0.0742
     29 H6          2.3607    1.8365    0.3496 H         1 <0>         0.0961
     30 H7          0.9613    2.1987    1.3581 H         1 <0>         0.0902
     31 H8         -1.4956   -1.0760   -0.2809 H         1 <0>         0.0815
     32 H9          0.0583   -0.8816   -1.1234 H         1 <0>         0.0733
     33 H10        -1.7154   -1.5718    3.6865 H         1 <0>         0.4017
     34 H11         1.5429   -4.5869    3.3282 H         1 <0>         0.0998
     35 H12         1.3638   -4.8614    1.5826 H         1 <0>         0.1037
     36 H13         3.4308   -3.0926    2.9437 H         1 <0>         0.0760
     37 H14         3.7289   -4.6482    2.1430 H         1 <0>         0.0985
     38 H15         4.3384   -2.6443    0.7198 H         1 <0>         0.1086
     39 H16         3.1055   -3.6944   -0.0370 H         1 <0>         0.1042
     40 H17         0.7234   -3.7763   -0.2366 H         1 <0>         0.3838
     41 H18         0.2494    2.0284    2.7007 H         1 <0>         0.0587
     42 H19        -0.5566    0.4553    2.9172 H         1 <0>         0.0993
     43 H20        -0.3764    1.7314    5.0628 H         1 <0>         0.1024
     44 H21         0.5052    0.1854    5.1215 H         1 <0>         0.0599
     45 H22         3.7344    1.8426    4.7074 H         1 <0>         0.1017
     46 H23         2.9601    0.2518    4.9092 H         1 <0>         0.0573
     47 H24         3.6121    0.5681    2.5567 H         1 <0>         0.1143
     48 H25         2.6976    2.0946    2.4890 H         1 <0>         0.0524
@<TRIPOS>BOND
     1    1    7 1
     2    1    2 1
     3    1   25 1
     4    1   26 1
     5    2    3 1
     6    2   27 1
     7    2   28 1
     8    3    4 1
     9    3   29 1
    10    3   30 1
    11    4   16 1
    12    4    5 1
    13    4   19 1
    14    5    6 1
    15    5    7 1
    16    5    8 1
    17    7   31 1
    18    7   32 1
    19    8   15 1
    20    8    9 1
    21    8   18 1
    22    9   10 2
    23    9   12 1
    24   10   11 1
    25   11   33 1
    26   12   13 1
    27   12   34 1
    28   12   35 1
    29   13   14 1
    30   13   36 1
    31   13   37 1
    32   14   15 1
    33   14   38 1
    34   14   39 1
    35   15   16 2
    36   16   17 1
    37   18   40 1
    38   19   24 1
    39   19   20 1
    40   20   21 1
    41   20   41 1
    42   20   42 1
    43   21   22 1
    44   21   43 1
    45   21   44 1
    46   22   23 1
    47   23   24 1
    48   23   45 1
    49   23   46 1
    50   24   47 1
    51   24   48 1
