@<TRIPOS>MOLECULE
ZINC35147867
   62    67     0     0     0
SMALL
USER_CHARGES

@<TRIPOS>ATOM
      1 C1         -0.6179    0.8743   -0.1267 C.3       1 <0>        -0.1194
      2 C2         -0.6412   -0.6032    0.1692 C.ar      1 <0>        -0.0946
      3 C3         -1.0038   -1.5020   -0.8175 C.ar      1 <0>        -0.0734
      4 C4         -1.0251   -2.8555   -0.5526 C.ar      1 <0>        -0.0895
      5 C5         -0.6822   -3.3277    0.7123 C.ar      1 <0>         0.1589
      6 C6         -0.3215   -2.4138    1.6978 C.ar      1 <0>        -0.1280
      7 C7         -0.2944   -1.0640    1.4269 C.ar      1 <0>        -0.0665
      8 C8         -0.0220   -3.2285    2.9248 C.3       1 <0>         0.1134
      9 C9         -0.9371   -2.8380    4.0913 C.3       1 <0>        -0.1362
     10 H1         -1.3015   -3.7035    4.6448 H         1 <0>         0.1504
     11 C10        -0.0763   -1.8846    4.9646 C.3       1 <0>        -0.1411
     12 H2          0.0141   -2.2256    5.9959 H         1 <0>         0.1514
     13 C11         1.2849   -1.8019    4.2498 C.3       1 <0>         0.0654
     14 H3          1.3779   -0.8935    3.6546 H         1 <0>         0.1101
     15 N1          1.3581   -3.0170    3.3926 N.3       1 <0>        -0.4383
     16 C12         1.7418   -4.0983    4.3314 C.3       1 <0>         0.0141
     17 C13         2.7332   -3.4472    5.3164 C.3       1 <0>        -0.1251
     18 C14         2.4141   -1.9271    5.2886 C.3       1 <0>        -0.1178
     19 C15        -0.7986   -0.5609    4.8529 C.2       1 <0>         0.5376
     20 O1         -0.4566    0.4715    5.3885 O.2       1 <0>        -0.4495
     21 N2         -1.8739   -0.7069    4.0701 N.am      1 <0>        -0.5339
     22 C16        -2.0577   -1.9568    3.5870 C.2       1 <0>         0.5483
     23 O2         -2.9641   -2.3187    2.8679 O.2       1 <0>        -0.4312
     24 C17        -2.7470    0.3502    3.7770 C.ar      1 <0>         0.2053
     25 C18        -2.2778    1.4751    3.1140 C.ar      1 <0>        -0.1945
     26 C19        -3.1438    2.5181    2.8259 C.ar      1 <0>         0.2058
     27 C20        -4.4776    2.4352    3.2010 C.ar      1 <0>        -0.0744
     28 C21        -4.9428    1.3142    3.8611 C.ar      1 <0>        -0.0069
     29 C22        -4.0834    0.2700    4.1448 C.ar      1 <0>        -0.1043
     30 C23        -4.5958   -0.9541    4.8590 C.3       1 <0>        -0.1208
     31 N3         -5.4026    3.5493    2.8938 N.pl3     1 <0>         0.0401
     32 O3         -6.5645    3.4778    3.2202 O.2       1 <0>        -0.1702
     33 O4         -4.9961    4.5308    2.3166 O.3       1 <0>        -0.1282
     34 O5         -2.6873    3.6215    2.1770 O.3       1 <0>        -0.2733
     35 C24        -1.2803    3.6986    1.9395 C.3       1 <0>         0.0057
     36 C25        -0.2478   -4.6572    2.5085 C.2       1 <0>         0.5508
     37 O6         -0.1141   -5.6431    3.2022 O.2       1 <0>        -0.4793
     38 N4         -0.6269   -4.6287    1.2165 N.am      1 <0>        -0.6486
     39 C26        -1.4210   -3.8265   -1.6349 C.3       1 <0>        -0.1168
     40 H4          0.3933    1.1737   -0.4024 H         1 <0>         0.0783
     41 H5         -1.2982    1.0906   -0.9504 H         1 <0>         0.0743
     42 H6         -0.9319    1.4271    0.7586 H         1 <0>         0.0619
     43 H7         -1.2719   -1.1424   -1.7999 H         1 <0>         0.1363
     44 H8         -0.0067   -0.3644    2.1977 H         1 <0>         0.1132
     45 H9          0.8646   -4.4646    4.8648 H         1 <0>         0.0690
     46 H10         2.2248   -4.9132    3.7922 H         1 <0>         0.0942
     47 H11         2.5765   -3.8353    6.3229 H         1 <0>         0.0779
     48 H12         3.7591   -3.6284    4.9958 H         1 <0>         0.0799
     49 H13         3.2926   -1.3723    4.9592 H         1 <0>         0.0840
     50 H14         2.0771   -1.5599    6.2580 H         1 <0>         0.0867
     51 H15        -1.2396    1.5380    2.8232 H         1 <0>         0.1542
     52 H16        -5.9810    1.2521    4.1523 H         1 <0>         0.1697
     53 H17        -4.4965   -0.8149    5.9355 H         1 <0>         0.0802
     54 H18        -5.6451   -1.1087    4.6080 H         1 <0>         0.0846
     55 H19        -4.0163   -1.8241    4.5502 H         1 <0>         0.0725
     56 H20        -0.7443    3.5304    2.8736 H         1 <0>         0.0653
     57 H21        -0.9922    2.9385    1.2133 H         1 <0>         0.0690
     58 H22        -1.0311    4.6859    1.5504 H         1 <0>         0.1179
     59 H23        -0.8370   -5.4202    0.6965 H         1 <0>         0.4198
     60 H24        -0.5344   -4.1336   -2.1897 H         1 <0>         0.0761
     61 H25        -1.8889   -4.7018   -1.1844 H         1 <0>         0.0634
     62 H26        -2.1260   -3.3465   -2.3136 H         1 <0>         0.0760
@<TRIPOS>BOND
     1    1    2 1
     2    1   40 1
     3    1   41 1
     4    1   42 1
     5    2    7 ar
     6    2    3 ar
     7    3    4 ar
     8    3   43 1
     9    4    5 ar
    10    4   39 1
    11    5   38 1
    12    5    6 ar
    13    6    7 ar
    14    6    8 1
    15    7   44 1
    16    8   15 1
    17    8    9 1
    18    8   36 1
    19    9   10 1
    20    9   22 1
    21    9   11 1
    22   11   12 1
    23   11   13 1
    24   11   19 1
    25   13   14 1
    26   13   18 1
    27   13   15 1
    28   15   16 1
    29   16   17 1
    30   16   45 1
    31   16   46 1
    32   17   18 1
    33   17   47 1
    34   17   48 1
    35   18   49 1
    36   18   50 1
    37   19   20 2
    38   19   21 am
    39   21   22 am
    40   21   24 1
    41   22   23 2
    42   24   29 ar
    43   24   25 ar
    44   25   26 ar
    45   25   51 1
    46   26   27 ar
    47   26   34 1
    48   27   28 ar
    49   27   31 1
    50   28   29 ar
    51   28   52 1
    52   29   30 1
    53   30   53 1
    54   30   54 1
    55   30   55 1
    56   31   32 2
    57   31   33 1
    58   34   35 1
    59   35   56 1
    60   35   57 1
    61   35   58 1
    62   36   37 2
    63   36   38 am
    64   38   59 1
    65   39   60 1
    66   39   61 1
    67   39   62 1
