@<TRIPOS>MOLECULE
ZINC15429578
   49    50     0     0     0
SMALL
USER_CHARGES
N-[4-[(isopropylcarbamothioylamino)carbamoyl]phenyl]-2-(1-methylimidazol-2-yl)sulfanyl-acetamide
@<TRIPOS>ATOM
      1 C1          5.2559    4.1168   -1.4495 C.3       1 <0>        -0.1662
      2 C2          4.7645    3.9693   -0.0081 C.3       1 <0>         0.1347
      3 C3          4.5436    5.3558    0.5999 C.3       1 <0>        -0.1644
      4 N1          3.5032    3.2242    0.0040 N.pl3     1 <0>        -0.6809
      5 C4          3.5167    1.8765    0.0073 C.2       1 <0>         0.5614
      6 S1          5.0077    1.0353   -0.0027 S.2       1 <0>        -0.5876
      7 N2          2.3563    1.1910    0.0184 N.pl3     1 <0>        -0.4689
      8 N3          1.1361    1.8794    0.0266 N.am      1 <0>        -0.5481
      9 C5         -0.0243    1.1939    0.0377 C.2       1 <0>         0.5708
     10 O1         -0.0121   -0.0219    0.0406 O.2       1 <0>        -0.5139
     11 C6         -1.3098    1.9191    0.0401 C.ar      1 <0>        -0.1492
     12 C7         -1.3255    3.3165    0.0425 C.ar      1 <0>        -0.0650
     13 C8         -2.5263    3.9898    0.0380 C.ar      1 <0>        -0.1473
     14 C9         -3.7233    3.2806    0.0442 C.ar      1 <0>         0.1811
     15 C10        -3.7112    1.8893    0.0480 C.ar      1 <0>        -0.1262
     16 C11        -2.5139    1.2098    0.0458 C.ar      1 <0>        -0.0275
     17 N4         -4.9378    3.9657    0.0460 N.am      1 <0>        -0.6674
     18 C12        -5.9957    3.4636   -0.6213 C.2       1 <0>         0.5352
     19 O2         -5.9168    2.3767   -1.1535 O.2       1 <0>        -0.4965
     20 C13        -7.2767    4.2529   -0.7061 C.3       1 <0>        -0.1413
     21 S2         -8.4988    3.3188   -1.6601 S.3       1 <0>         0.0618
     22 C14        -9.8557    4.4414   -1.6016 C.2       1 <0>         0.1680
     23 N5         -9.8635    5.6056   -0.9952 N.2       1 <0>        -0.4922
     24 C15       -11.0635    6.1861   -1.1637 C.2       1 <0>        -0.0176
     25 C16       -11.8354    5.3590   -1.8890 C.2       1 <0>        -0.0422
     26 N6        -11.0758    4.2462   -2.1725 N.pl3     1 <0>        -0.4461
     27 C17       -11.5001    3.0746   -2.9428 C.3       1 <0>         0.0680
     28 H1          6.1944    4.6712   -1.4585 H         1 <0>         0.0753
     29 H2          5.4133    3.1290   -1.8826 H         1 <0>         0.0753
     30 H3          4.5102    4.6554   -2.0342 H         1 <0>         0.0533
     31 H4          5.5103    3.4308    0.5767 H         1 <0>         0.1195
     32 H5          4.1935    5.2507    1.6268 H         1 <0>         0.0639
     33 H6          5.4821    5.9102    0.5909 H         1 <0>         0.0847
     34 H7          3.7979    5.8944    0.0151 H         1 <0>         0.0605
     35 H8          2.6584    3.7008    0.0097 H         1 <0>         0.3889
     36 H9          2.3660    0.2211    0.0208 H         1 <0>         0.4597
     37 H10         1.1264    2.8493    0.0242 H         1 <0>         0.4182
     38 H11        -0.3967    3.8676    0.0426 H         1 <0>         0.1263
     39 H12        -2.5392    5.0697    0.0343 H         1 <0>         0.1389
     40 H13        -4.6421    1.3418    0.0525 H         1 <0>         0.1522
     41 H14        -2.5052    0.1299    0.0481 H         1 <0>         0.1460
     42 H15        -5.0213    4.8036    0.5274 H         1 <0>         0.4195
     43 H16        -7.6600    4.4324    0.2984 H         1 <0>         0.1313
     44 H17        -7.0841    5.2066   -1.1973 H         1 <0>         0.1310
     45 H18       -11.3589    7.1506   -0.7779 H         1 <0>         0.1754
     46 H19       -12.8573    5.5338   -2.1917 H         1 <0>         0.1808
     47 H20       -11.9378    2.3367   -2.2704 H         1 <0>         0.0833
     48 H21       -12.2408    3.3756   -3.6836 H         1 <0>         0.0927
     49 H22       -10.6374    2.6397   -3.4475 H         1 <0>         0.0904
@<TRIPOS>BOND
     1    1    2 1
     2    1   28 1
     3    1   29 1
     4    1   30 1
     5    2    3 1
     6    2    4 1
     7    2   31 1
     8    3   32 1
     9    3   33 1
    10    3   34 1
    11    4    5 1
    12    4   35 1
    13    5    6 2
    14    5    7 1
    15    7    8 1
    16    7   36 1
    17    8    9 am
    18    8   37 1
    19    9   10 2
    20    9   11 1
    21   11   16 ar
    22   11   12 ar
    23   12   13 ar
    24   12   38 1
    25   13   14 ar
    26   13   39 1
    27   14   15 ar
    28   14   17 1
    29   15   16 ar
    30   15   40 1
    31   16   41 1
    32   17   18 am
    33   17   42 1
    34   18   19 2
    35   18   20 1
    36   20   21 1
    37   20   43 1
    38   20   44 1
    39   21   22 1
    40   22   26 1
    41   22   23 2
    42   23   24 1
    43   24   25 2
    44   24   45 1
    45   25   26 1
    46   25   46 1
    47   26   27 1
    48   27   47 1
    49   27   48 1
    50   27   49 1
