@<TRIPOS>MOLECULE
ZINC47697488
   42    44     0     0     0
SMALL
USER_CHARGES

@<TRIPOS>ATOM
      1 C1          0.1121    1.1591   -0.7540 C.ar      1 <0>        -0.0940
      2 C2          1.2980    1.8676   -0.7571 C.ar      1 <0>        -0.0711
      3 C3          2.3811    1.4085   -0.0197 C.ar      1 <0>         0.1747
      4 C4          2.2684    0.2377    0.7190 C.ar      1 <0>        -0.0902
      5 C5          1.0802   -0.4659    0.7180 C.ar      1 <0>        -0.0276
      6 C6          0.0031   -0.0060   -0.0176 C.ar      1 <0>        -0.0719
      7 N1          0.9593   -1.7137    1.5050 N.pl3     1 <0>         0.0336
      8 O1          1.9004   -2.1163    2.1482 O.2       1 <0>        -0.1581
      9 O2         -0.0807   -2.3302    1.5045 O.3       1 <0>        -0.1528
     10 N2          3.5841    2.1236   -0.0212 N.am      1 <0>        -0.6848
     11 C7          3.5687    3.4679   -0.1160 C.2       1 <0>         0.7062
     12 O3          2.5103    4.0663   -0.1029 O.2       1 <0>        -0.5669
     13 N3          4.7266    4.1490   -0.2254 N.am      1 <0>        -0.7357
     14 C8          4.7099    5.6103   -0.3285 C.3       1 <0>         0.1425
     15 C9          6.1445    6.1300   -0.4410 C.3       1 <0>        -0.0824
     16 C10         6.1273    7.6332   -0.5471 C.ar      1 <0>        -0.0809
     17 C11         6.1554    8.2381   -1.7886 C.ar      1 <0>        -0.1102
     18 C12         6.1404    9.6189   -1.8865 C.ar      1 <0>         0.0756
     19 C13         6.0984   10.3943   -0.7404 C.ar      1 <0>        -0.1080
     20 C14         6.0707    9.7918    0.5032 C.ar      1 <0>        -0.1720
     21 C15         6.0776    8.4092    0.6025 C.ar      1 <0>         0.1321
     22 O4          6.0364    7.8036    1.8199 O.3       1 <0>        -0.3228
     23 C16         6.3475    8.6149    2.9562 C.3       1 <0>         0.2198
     24 O5          5.6143    9.8416    2.8571 O.3       1 <0>        -0.3800
     25 C17         6.0292   10.6463    1.7449 C.3       1 <0>         0.0993
     26 F1          6.1672   10.2100   -3.1010 F         1 <0>        -0.1349
     27 H1         -0.7322    1.5181   -1.3238 H         1 <0>         0.1531
     28 H2          1.3826    2.7774   -1.3328 H         1 <0>         0.1555
     29 H3          3.1093   -0.1221    1.2933 H         1 <0>         0.1559
     30 H4         -0.9251   -0.5581   -0.0168 H         1 <0>         0.1558
     31 H5          4.4289    1.6517    0.0461 H         1 <0>         0.4131
     32 H6          5.5709    3.6717   -0.2359 H         1 <0>         0.4007
     33 H7          4.1460    5.9057   -1.2133 H         1 <0>         0.0724
     34 H8          4.2393    6.0319    0.5597 H         1 <0>         0.0766
     35 H9          6.7084    5.8347    0.4438 H         1 <0>         0.0894
     36 H10         6.6151    5.7085   -1.3292 H         1 <0>         0.0849
     37 H11         6.1894    7.6337   -2.6830 H         1 <0>         0.1464
     38 H12         6.0876   11.4715   -0.8182 H         1 <0>         0.1440
     39 H13         6.0626    8.0911    3.8686 H         1 <0>         0.1458
     40 H14         7.4164    8.8277    2.9721 H         1 <0>         0.0665
     41 H15         7.0184   11.0638    1.9325 H         1 <0>         0.0810
     42 H16         5.3125   11.4557    1.6058 H         1 <0>         0.1192
@<TRIPOS>BOND
     1    1    6 ar
     2    1    2 ar
     3    1   27 1
     4    2    3 ar
     5    2   28 1
     6    3    4 ar
     7    3   10 1
     8    4    5 ar
     9    4   29 1
    10    5    6 ar
    11    5    7 1
    12    6   30 1
    13    7    8 2
    14    7    9 1
    15   10   11 am
    16   10   31 1
    17   11   12 2
    18   11   13 am
    19   13   14 1
    20   13   32 1
    21   14   15 1
    22   14   33 1
    23   14   34 1
    24   15   16 1
    25   15   35 1
    26   15   36 1
    27   16   21 ar
    28   16   17 ar
    29   17   18 ar
    30   17   37 1
    31   18   19 ar
    32   18   26 1
    33   19   20 ar
    34   19   38 1
    35   20   25 1
    36   20   21 ar
    37   21   22 1
    38   22   23 1
    39   23   24 1
    40   23   39 1
    41   23   40 1
    42   24   25 1
    43   25   41 1
    44   25   42 1
