@<TRIPOS>MOLECULE
ZINC12918505
   65    67     0     0     0
SMALL
USER_CHARGES
[2-[[5-(dimethylcarbamoyl)-3-ethoxycarbonyl-4-methyl-2-thienyl]amino]-2-oxo-ethyl] (3S)-5-oxo-1-(p-tolyl)pyrrolidine-3-carboxylate
@<TRIPOS>ATOM
      1 C1         -5.8115    0.8123   -7.1857 C.3       1 <0>        -0.1536
      2 C2         -4.8655    1.8330   -7.8215 C.3       1 <0>         0.0576
      3 O1         -3.5044    1.3302   -7.7682 O.3       1 <0>        -0.3494
      4 C3         -2.5408    2.1155   -8.2908 C.2       1 <0>         0.5305
      5 O2         -2.8309    3.1913   -8.7778 O.2       1 <0>        -0.4864
      6 C4         -1.1425    1.6719   -8.2719 C.2       1 <0>        -0.2106
      7 C5         -0.6092    0.9360   -9.3197 C.2       1 <0>         0.0145
      8 C6          0.7030    0.5596   -9.2287 C.2       1 <0>        -0.2879
      9 S1          1.2014    1.2491   -7.6621 S.3       1 <0>         0.3081
     10 C7         -0.3011    1.9770   -7.1968 C.2       1 <0>         0.0868
     11 N1         -0.5941    2.6885   -6.0496 N.am      1 <0>        -0.6116
     12 C8          0.3578    2.8821   -5.1153 C.2       1 <0>         0.5125
     13 O3          1.4713    2.4318   -5.2817 O.2       1 <0>        -0.4664
     14 C9          0.0382    3.6583   -3.8637 C.3       1 <0>         0.0551
     15 O4          1.2195    3.7277   -3.0223 O.3       1 <0>        -0.3243
     16 C10         1.1022    4.3899   -1.8606 C.2       1 <0>         0.4822
     17 O5          0.0474    4.8950   -1.5570 O.2       1 <0>        -0.4896
     18 C11         2.2862    4.5036   -0.9352 C.3       1 <0>        -0.0937
     19 H1          2.6390    3.5173   -0.6336 H         1 <0>         0.1411
     20 C12         3.4234    5.3219   -1.5895 C.3       1 <0>        -0.1406
     21 C13         4.0135    6.1172   -0.4459 C.2       1 <0>         0.5194
     22 O6          5.0928    6.6701   -0.4684 O.2       1 <0>        -0.4970
     23 N2          3.1673    6.1227    0.5985 N.am      1 <0>        -0.5580
     24 C14         1.9442    5.3694    0.2976 C.3       1 <0>         0.1088
     25 C15         3.4202    6.7638    1.8162 C.ar      1 <0>         0.1552
     26 C16         4.6584    7.3469    2.0516 C.ar      1 <0>        -0.1492
     27 C17         4.9033    7.9831    3.2527 C.ar      1 <0>        -0.0917
     28 C18         3.9205    8.0312    4.2243 C.ar      1 <0>        -0.1076
     29 C19         2.6883    7.4470    3.9951 C.ar      1 <0>        -0.0932
     30 C20         2.4355    6.8134    2.7942 C.ar      1 <0>        -0.1515
     31 C21         4.1930    8.7213    5.5360 C.3       1 <0>        -0.1138
     32 C22         1.5010   -0.2128  -10.1832 C.2       1 <0>         0.6082
     33 O7          1.3578   -0.0368  -11.3791 O.2       1 <0>        -0.5167
     34 N3          2.3941   -1.1185   -9.7376 N.am      1 <0>        -0.6159
     35 C23         3.2792   -1.8016  -10.6843 C.3       1 <0>         0.0855
     36 C24         2.4798   -1.4199   -8.3065 C.3       1 <0>         0.0649
     37 C25        -1.4461    0.5636  -10.5163 C.3       1 <0>        -0.1067
     38 H2         -5.5248    0.6491   -6.1468 H         1 <0>         0.0670
     39 H3         -6.8332    1.1897   -7.2257 H         1 <0>         0.0830
     40 H4         -5.7502   -0.1291   -7.7317 H         1 <0>         0.0688
     41 H5         -4.9267    2.7744   -7.2755 H         1 <0>         0.0719
     42 H6         -5.1522    1.9962   -8.8604 H         1 <0>         0.0740
     43 H7         -1.4848    3.0487   -5.9165 H         1 <0>         0.4251
     44 H8         -0.7651    3.1591   -3.3218 H         1 <0>         0.1180
     45 H9         -0.2765    4.6668   -4.1320 H         1 <0>         0.1173
     46 H10         4.1732    4.6574   -2.0189 H         1 <0>         0.1277
     47 H11         3.0230    5.9882   -2.3536 H         1 <0>         0.1166
     48 H12         1.1281    6.0530    0.0637 H         1 <0>         0.1022
     49 H13         1.6751    4.7343    1.1416 H         1 <0>         0.1015
     50 H14         5.4279    7.3058    1.2949 H         1 <0>         0.1546
     51 H15         5.8649    8.4398    3.4351 H         1 <0>         0.1275
     52 H16         1.9229    7.4859    4.7560 H         1 <0>         0.1274
     53 H17         1.4729    6.3573    2.6157 H         1 <0>         0.1262
     54 H18         4.6048    8.0035    6.2455 H         1 <0>         0.0701
     55 H19         4.9081    9.5290    5.3799 H         1 <0>         0.0664
     56 H20         3.2633    9.1305    5.9313 H         1 <0>         0.0660
     57 H21         4.1969   -1.2259  -10.8039 H         1 <0>         0.0596
     58 H22         3.5201   -2.7946  -10.3048 H         1 <0>         0.0745
     59 H23         2.7790   -1.8926  -11.6485 H         1 <0>         0.0816
     60 H24         1.7238   -0.8476   -7.7688 H         1 <0>         0.0789
     61 H25         2.3098   -2.4849   -8.1486 H         1 <0>         0.0737
     62 H26         3.4695   -1.1513   -7.9372 H         1 <0>         0.0700
     63 H27        -1.3662    1.3442  -11.2728 H         1 <0>         0.0876
     64 H28        -1.0901   -0.3803  -10.9291 H         1 <0>         0.0824
     65 H29        -2.4875    0.4574  -10.2124 H         1 <0>         0.0649
@<TRIPOS>BOND
     1    1    2 1
     2    1   38 1
     3    1   39 1
     4    1   40 1
     5    2    3 1
     6    2   41 1
     7    2   42 1
     8    3    4 1
     9    4    5 2
    10    4    6 1
    11    6   10 2
    12    6    7 1
    13    7    8 2
    14    7   37 1
    15    8    9 1
    16    8   32 1
    17    9   10 1
    18   10   11 1
    19   11   12 am
    20   11   43 1
    21   12   13 2
    22   12   14 1
    23   14   15 1
    24   14   44 1
    25   14   45 1
    26   15   16 1
    27   16   17 2
    28   16   18 1
    29   18   19 1
    30   18   24 1
    31   18   20 1
    32   20   21 1
    33   20   46 1
    34   20   47 1
    35   21   22 2
    36   21   23 am
    37   23   24 1
    38   23   25 1
    39   24   48 1
    40   24   49 1
    41   25   30 ar
    42   25   26 ar
    43   26   27 ar
    44   26   50 1
    45   27   28 ar
    46   27   51 1
    47   28   29 ar
    48   28   31 1
    49   29   30 ar
    50   29   52 1
    51   30   53 1
    52   31   54 1
    53   31   55 1
    54   31   56 1
    55   32   33 2
    56   32   34 am
    57   34   35 1
    58   34   36 1
    59   35   57 1
    60   35   58 1
    61   35   59 1
    62   36   60 1
    63   36   61 1
    64   36   62 1
    65   37   63 1
    66   37   64 1
    67   37   65 1
