@<TRIPOS>MOLECULE
ZINC63698361
   69    73     0     0     0
SMALL
USER_CHARGES

@<TRIPOS>ATOM
      1 C1         -0.5082    1.0422    1.6400 C.3       1 <0>        -0.1626
      2 C2         -0.4215   -0.4618    1.6784 C.ar      1 <0>         0.0885
      3 C3         -0.6190   -1.1801    0.4857 C.ar      1 <0>         0.0342
      4 C4         -0.5598   -2.5257    0.4293 C.ar      1 <0>        -0.1332
      5 C5         -0.2785   -3.2908    1.6518 C.ar      1 <0>         0.3206
      6 N1         -0.1649   -4.5651    1.8919 N.pl3     1 <0>        -0.4644
      7 C6          0.1254   -4.7197    3.3229 C.3       1 <0>         0.2452
      8 H1         -0.6614   -5.3010    3.8036 H         1 <0>         0.2526
      9 N2          0.1660   -3.3642    3.8859 N.pl3     1 <0>        -0.4805
     10 C7         -0.0690   -2.5305    2.9143 C.ar      1 <0>         0.3152
     11 C8         -0.1524   -1.0647    2.8537 C.ar      1 <0>        -0.1673
     12 C9          1.4779   -5.4093    3.5129 C.3       1 <0>         0.1002
     13 N3          2.5253   -4.6174    2.8634 N.am      1 <0>        -0.7685
     14 C10         3.8064   -5.0342    2.9013 C.2       1 <0>         0.5319
     15 O1          4.0922   -6.0648    3.4731 O.2       1 <0>        -0.4798
     16 C11         4.8839   -4.2195    2.2331 C.3       1 <0>        -0.1233
     17 H2          4.9175   -3.2254    2.6787 H         1 <0>         0.1112
     18 C12         4.5801   -4.0991    0.7380 C.3       1 <0>        -0.1040
     19 C13         5.6562   -3.2445    0.0642 C.3       1 <0>        -0.1350
     20 C14         7.0191   -3.9247    0.2275 C.3       1 <0>         0.1113
     21 N4          7.2544   -4.1755    1.6559 N.pl3     1 <0>        -0.9983
     22 C15         6.2382   -4.9103    2.4216 C.3       1 <0>         0.1376
     23 S1          8.6391   -3.6401    2.3896 S.o2      1 <0>         2.6863
     24 O2          8.8435   -4.4692    3.5254 O.2       1 <0>        -0.9463
     25 O3          9.6131   -3.4983    1.3647 O.2       1 <0>        -0.9401
     26 C16         8.3119   -2.0203    3.0010 C.ar      1 <0>        -0.7000
     27 C17         8.5487   -0.9191    2.1984 C.ar      1 <0>         0.0001
     28 C18         8.2936    0.3498    2.6782 C.ar      1 <0>        -0.1710
     29 C19         7.7984    0.5203    3.9661 C.ar      1 <0>         0.2170
     30 C20         7.5582   -0.5835    4.7687 C.ar      1 <0>        -0.1415
     31 C21         7.8141   -1.8535    4.2785 C.ar      1 <0>        -0.0016
     32 C22         7.0124   -0.4376    6.1646 C.3       1 <0>        -0.0760
     33 C23         7.2652    0.9739    6.6936 C.3       1 <0>        -0.1422
     34 C24         6.7580    1.9892    5.6612 C.3       1 <0>         0.0970
     35 N5          7.5507    1.8175    4.4360 N.am      1 <0>        -0.5617
     36 C25         8.0318    2.8891    3.7753 C.2       1 <0>         0.5135
     37 O4          8.7802    2.7351    2.8334 O.2       1 <0>        -0.5053
     38 C26         7.6398    4.2788    4.2069 C.3       1 <0>        -0.1783
     39 H3          0.4769    1.4576    1.4274 H         1 <0>         0.1324
     40 H4         -1.2066    1.3461    0.8602 H         1 <0>         0.1160
     41 H5         -0.8576    1.4108    2.6044 H         1 <0>         0.1119
     42 H6         -0.8267   -0.6318   -0.4213 H         1 <0>         0.2058
     43 H7         -0.7185   -3.0380   -0.5081 H         1 <0>         0.2099
     44 H8         -0.0031   -0.4745    3.7458 H         1 <0>         0.2047
     45 H9          1.6952   -5.4957    4.5775 H         1 <0>         0.1510
     46 H10         1.4447   -6.4033    3.0670 H         1 <0>         0.1504
     47 H11         2.2968   -3.7931    2.4060 H         1 <0>         0.3882
     48 H12         4.5706   -5.0920    0.2882 H         1 <0>         0.0807
     49 H13         3.6058   -3.6298    0.6020 H         1 <0>         0.0532
     50 H14         5.4265   -3.1398   -0.9961 H         1 <0>         0.0895
     51 H15         5.6830   -2.2595    0.5302 H         1 <0>         0.0735
     52 H16         7.0230   -4.8701   -0.3150 H         1 <0>         0.0837
     53 H17         7.8014   -3.2738   -0.1630 H         1 <0>         0.1030
     54 H18         6.5048   -4.9095    3.4784 H         1 <0>         0.1033
     55 H19         6.1788   -5.9363    2.0584 H         1 <0>         0.0911
     56 H20         8.9331   -1.0517    1.1979 H         1 <0>         0.1435
     57 H21         8.4790    1.2106    2.0529 H         1 <0>         0.1756
     58 H22         7.6276   -2.7171    4.8997 H         1 <0>         0.1392
     59 H23         5.9397   -0.6308    6.1533 H         1 <0>         0.0737
     60 H24         7.5005   -1.1598    6.8190 H         1 <0>         0.0878
     61 H25         6.7319    1.1122    7.6342 H         1 <0>         0.0939
     62 H26         8.3338    1.1181    6.8531 H         1 <0>         0.0801
     63 H27         5.7050    1.8047    5.4485 H         1 <0>         0.0775
     64 H28         6.8861    3.0013    6.0450 H         1 <0>         0.1061
     65 H29         6.8925    4.2163    4.9979 H         1 <0>         0.0850
     66 H30         8.5189    4.8054    4.5783 H         1 <0>         0.1076
     67 H31         7.2245    4.8197    3.3566 H         1 <0>         0.1055
     68 H32        -0.2558   -5.2814    1.2442 H         1 <0>         0.4980
     69 H33         0.3367   -3.1325    4.8123 H         1 <0>         0.4968
@<TRIPOS>BOND
     1    1    2 1
     2    1   39 1
     3    1   40 1
     4    1   41 1
     5    2   11 ar
     6    2    3 ar
     7    3    4 ar
     8    3   42 1
     9    4    5 ar
    10    4   43 1
    11    5   10 ar
    12    5    6 2
    13    6    7 1
    14    6   68 1
    15    7    8 1
    16    7    9 1
    17    7   12 1
    18    9   10 2
    19    9   69 1
    20   10   11 ar
    21   11   44 1
    22   12   13 1
    23   12   45 1
    24   12   46 1
    25   13   14 am
    26   13   47 1
    27   14   15 2
    28   14   16 1
    29   16   17 1
    30   16   22 1
    31   16   18 1
    32   18   19 1
    33   18   48 1
    34   18   49 1
    35   19   20 1
    36   19   50 1
    37   19   51 1
    38   20   21 1
    39   20   52 1
    40   20   53 1
    41   21   22 1
    42   21   23 1
    43   22   54 1
    44   22   55 1
    45   23   24 2
    46   23   25 2
    47   23   26 1
    48   26   31 ar
    49   26   27 ar
    50   27   28 ar
    51   27   56 1
    52   28   29 ar
    53   28   57 1
    54   29   35 1
    55   29   30 ar
    56   30   31 ar
    57   30   32 1
    58   31   58 1
    59   32   33 1
    60   32   59 1
    61   32   60 1
    62   33   34 1
    63   33   61 1
    64   33   62 1
    65   34   35 1
    66   34   63 1
    67   34   64 1
    68   35   36 am
    69   36   37 2
    70   36   38 1
    71   38   65 1
    72   38   66 1
    73   38   67 1
