@<TRIPOS>MOLECULE
ZINC52661242
   48    49     0     0     0
SMALL
USER_CHARGES

@<TRIPOS>ATOM
      1 C1         -1.3011    1.1854    0.1779 C.3       1 <0>        -0.1161
      2 C2         -0.6234   -0.1573    0.0829 C.ar      1 <0>        -0.0863
      3 C3         -0.6097   -0.8393   -1.1194 C.ar      1 <0>        -0.0854
      4 C4          0.0139   -2.0747   -1.2087 C.ar      1 <0>         0.1288
      5 C5          0.6257   -2.6255   -0.0845 C.ar      1 <0>         0.1071
      6 C6          0.6082   -1.9367    1.1169 C.ar      1 <0>        -0.1762
      7 C7         -0.0113   -0.7019    1.1977 C.ar      1 <0>        -0.0155
      8 Cl1        -0.0258    0.1630    2.7028 Cl        1 <0>        -0.0598
      9 O1          1.2381   -3.8367   -0.1667 O.3       1 <0>        -0.3157
     10 C8          1.8442   -4.3395    1.0257 C.3       1 <0>         0.0262
     11 N1          0.0283   -2.7679   -2.4269 N.am      1 <0>        -0.6557
     12 C9         -0.0889   -2.0931   -3.5876 C.2       1 <0>         0.5115
     13 O2         -0.1059   -0.8803   -3.5850 O.2       1 <0>        -0.5093
     14 C10        -0.1988   -2.8455   -4.8888 C.3       1 <0>         0.1371
     15 H1         -1.0814   -3.4846   -4.8655 H         1 <0>         0.1113
     16 C11         1.0499   -3.7072   -5.0866 C.3       1 <0>        -0.1701
     17 N2         -0.3149   -1.8926   -5.9955 N.pl3     1 <0>        -0.7294
     18 C12        -0.9335   -2.2784   -7.1873 C.ar      1 <0>         0.2138
     19 C13        -1.4439   -3.5646   -7.3211 C.ar      1 <0>        -0.1767
     20 C14        -2.0571   -3.9507   -8.4979 C.ar      1 <0>        -0.0765
     21 C15        -2.1668   -3.0621   -9.5484 C.ar      1 <0>        -0.1446
     22 C16        -1.6577   -1.7684   -9.4243 C.ar      1 <0>        -0.0875
     23 C17        -1.0434   -1.3767   -8.2347 C.ar      1 <0>        -0.1297
     24 C18        -1.7736   -0.8147  -10.5483 C.2       1 <0>         0.5559
     25 O3         -1.3296    0.3114  -10.4381 O.2       1 <0>        -0.5332
     26 N3         -2.3717   -1.1941  -11.6950 N.am      1 <0>        -0.7310
     27 C19        -2.4866   -0.2492  -12.8086 C.3       1 <0>         0.0862
     28 H2         -0.5838    1.9718   -0.0566 H         1 <0>         0.0770
     29 H3         -2.1288    1.2255   -0.5302 H         1 <0>         0.0720
     30 H4         -1.6809    1.3298    1.1894 H         1 <0>         0.0743
     31 H5         -1.0850   -0.4102   -1.9891 H         1 <0>         0.1617
     32 H6          1.0817   -2.3614    1.9898 H         1 <0>         0.1444
     33 H7          2.6134   -3.6447    1.3631 H         1 <0>         0.0589
     34 H8          1.0860   -4.4467    1.8014 H         1 <0>         0.0591
     35 H9          2.2957   -5.3105    0.8222 H         1 <0>         0.1051
     36 H10         0.1227   -3.7333   -2.4345 H         1 <0>         0.4184
     37 H11         1.1363   -4.4161   -4.2632 H         1 <0>         0.0719
     38 H12         0.9704   -4.2514   -6.0277 H         1 <0>         0.0785
     39 H13         1.9325   -3.0680   -5.1099 H         1 <0>         0.0691
     40 H14         0.0376   -0.9939   -5.9008 H         1 <0>         0.4126
     41 H15        -1.3607   -4.2644   -6.5028 H         1 <0>         0.1260
     42 H16        -2.4514   -4.9513   -8.5961 H         1 <0>         0.1294
     43 H17        -2.6464   -3.3679  -10.4664 H         1 <0>         0.1227
     44 H18        -0.6513   -0.3758   -8.1315 H         1 <0>         0.1357
     45 H19        -2.7261   -2.0927  -11.7829 H         1 <0>         0.4025
     46 H20        -2.9951   -0.7315  -13.6434 H         1 <0>         0.0776
     47 H21        -3.0588    0.6216  -12.4887 H         1 <0>         0.0618
     48 H22        -1.4912    0.0654  -13.1223 H         1 <0>         0.0618
@<TRIPOS>BOND
     1    1    2 1
     2    1   28 1
     3    1   29 1
     4    1   30 1
     5    2    7 ar
     6    2    3 ar
     7    3    4 ar
     8    3   31 1
     9    4    5 ar
    10    4   11 1
    11    5    6 ar
    12    5    9 1
    13    6    7 ar
    14    6   32 1
    15    7    8 1
    16    9   10 1
    17   10   33 1
    18   10   34 1
    19   10   35 1
    20   11   12 am
    21   11   36 1
    22   12   13 2
    23   12   14 1
    24   14   15 1
    25   14   16 1
    26   14   17 1
    27   16   37 1
    28   16   38 1
    29   16   39 1
    30   17   18 1
    31   17   40 1
    32   18   23 ar
    33   18   19 ar
    34   19   20 ar
    35   19   41 1
    36   20   21 ar
    37   20   42 1
    38   21   22 ar
    39   21   43 1
    40   22   23 ar
    41   22   24 1
    42   23   44 1
    43   24   25 2
    44   24   26 am
    45   26   27 1
    46   26   45 1
    47   27   46 1
    48   27   47 1
    49   27   48 1
