@<TRIPOS>MOLECULE
ZINC29685390
   56    60     0     0     0
SMALL
USER_CHARGES
[2-(2-methyl-1H-indol-3-yl)-2-oxo-ethyl] 1-[3-(trifluoromethyl)-[1,2,4]triazolo[3,4-f]pyridazin-6-yl]piperidine-4-carboxylate
@<TRIPOS>ATOM
      1 C1          2.0648   12.3216    3.9888 C.3       1 <0>        -0.1094
      2 C2          0.7694   12.7042    3.3203 C.2       1 <0>         0.1433
      3 C3         -0.1187   11.8208    2.7447 C.2       1 <0>        -0.2800
      4 C4         -1.2335   12.6376    2.2262 C.ar      1 <0>        -0.0645
      5 C5         -2.4180   12.3434    1.5569 C.ar      1 <0>        -0.0829
      6 C6         -3.2721   13.3645    1.2009 C.ar      1 <0>        -0.1308
      7 C7         -2.9550   14.6800    1.5065 C.ar      1 <0>        -0.1015
      8 C8         -1.7855   14.9848    2.1680 C.ar      1 <0>        -0.1201
      9 C9         -0.9103   13.9677    2.5360 C.ar      1 <0>         0.0990
     10 N1          0.3045   13.9614    3.1911 N.pl3     1 <0>        -0.5836
     11 H1          0.8867   14.8065    3.5872 H         1 <0>         0.4476
     12 C10         0.0098   10.4112    2.6710 C.2       1 <0>         0.4469
     13 O1         -0.5002    9.7100    3.5207 O.2       1 <0>        -0.4207
     14 C11         0.7796    9.7830    1.5380 C.3       1 <0>         0.0180
     15 O2          0.8744    8.3502    1.7531 O.3       1 <0>        -0.3382
     16 C12         1.5346    7.6372    0.8270 C.2       1 <0>         0.4660
     17 O3          2.0173    8.1921   -0.1317 O.2       1 <0>        -0.4994
     18 C13         1.6738    6.1448    0.9829 C.3       1 <0>        -0.0840
     19 C14         2.4637    5.5782   -0.2001 C.3       1 <0>        -0.1054
     20 C15         2.5507    4.0561   -0.0669 C.3       1 <0>         0.0520
     21 N2          1.1970    3.4875   -0.0417 N.pl3     1 <0>        -0.4518
     22 C16         0.4352    3.9808    1.1127 C.3       1 <0>         0.0549
     23 C17         0.2851    5.5006    1.0148 C.3       1 <0>        -0.1117
     24 C18         1.2400    2.0973   -0.0534 C.2       1 <0>         0.3530
     25 C19         0.0373    1.3640   -0.0328 C.2       1 <0>        -0.1443
     26 C20         0.0673    0.0053   -0.0443 C.2       1 <0>         0.0053
     27 C21         1.3116   -0.6527   -0.0769 C.2       1 <0>         0.1594
     28 N3          1.6743   -1.9255   -0.0951 N.2       1 <0>        -0.2344
     29 N4          2.9593   -2.0001   -0.1240 N.2       1 <0>        -0.1913
     30 C22         3.4815   -0.7983   -0.1259 C.2       1 <0>         0.0994
     31 N5          2.4658    0.0903   -0.0964 N.pl3     1 <0>        -0.2563
     32 N6          2.4005    1.4851   -0.0839 N.2       1 <0>        -0.3022
     33 C23         4.9515   -0.4677   -0.1549 C.3       1 <0>         0.5760
     34 F1          5.6783   -1.6056   -0.5213 F         1 <0>        -0.1448
     35 F2          5.1819    0.5521   -1.0845 F         1 <0>        -0.1573
     36 F3          5.3591   -0.0428    1.1141 F         1 <0>        -0.1588
     37 H2          2.1894   11.2294    3.9488 H         1 <0>         0.0853
     38 H3          2.0468   12.6504    5.0384 H         1 <0>         0.0873
     39 H4          2.9036   12.8057    3.4672 H         1 <0>         0.0871
     40 H5         -2.6666   11.3199    1.3182 H         1 <0>         0.1220
     41 H6         -4.1919   13.1398    0.6814 H         1 <0>         0.1276
     42 H7         -3.6313   15.4729    1.2229 H         1 <0>         0.1294
     43 H8         -1.5481   16.0125    2.4004 H         1 <0>         0.1237
     44 H9          0.2590    9.9776    0.5887 H         1 <0>         0.1088
     45 H10         1.7903   10.2153    1.4973 H         1 <0>         0.1055
     46 H11         2.2054    5.9420    1.9243 H         1 <0>         0.1144
     47 H12         1.9534    5.8373   -1.1395 H         1 <0>         0.0898
     48 H13         3.4770    6.0063   -0.2032 H         1 <0>         0.0913
     49 H14         3.1050    3.6442   -0.9231 H         1 <0>         0.1025
     50 H15         3.0733    3.7989    0.8662 H         1 <0>         0.0651
     51 H16        -0.5609    3.5142    1.1211 H         1 <0>         0.1031
     52 H17         0.9680    3.7244    2.0403 H         1 <0>         0.0651
     53 H18        -0.2718    5.8728    1.8874 H         1 <0>         0.1012
     54 H19        -0.2600    5.7585    0.0948 H         1 <0>         0.0878
     55 H20        -0.9100    1.8823   -0.0123 H         1 <0>         0.1728
     56 H21        -0.8514   -0.5623   -0.0289 H         1 <0>         0.1826
@<TRIPOS>BOND
     1    1    2 1
     2    1   37 1
     3    1   38 1
     4    1   39 1
     5    2   10 1
     6    2    3 2
     7    3    4 1
     8    3   12 1
     9    4    9 ar
    10    4    5 ar
    11    5    6 ar
    12    5   40 1
    13    6    7 ar
    14    6   41 1
    15    7    8 ar
    16    7   42 1
    17    8    9 ar
    18    8   43 1
    19    9   10 1
    20   10   11 1
    21   12   13 2
    22   12   14 1
    23   14   15 1
    24   14   44 1
    25   14   45 1
    26   15   16 1
    27   16   17 2
    28   16   18 1
    29   18   23 1
    30   18   19 1
    31   18   46 1
    32   19   20 1
    33   19   47 1
    34   19   48 1
    35   20   21 1
    36   20   49 1
    37   20   50 1
    38   21   22 1
    39   21   24 1
    40   22   23 1
    41   22   51 1
    42   22   52 1
    43   23   53 1
    44   23   54 1
    45   24   32 2
    46   24   25 1
    47   25   26 2
    48   25   55 1
    49   26   27 1
    50   26   56 1
    51   27   31 1
    52   27   28 2
    53   28   29 1
    54   29   30 2
    55   30   31 1
    56   30   33 1
    57   31   32 1
    58   33   34 1
    59   33   35 1
    60   33   36 1
