@<TRIPOS>MOLECULE
ZINC39485253
   34    35     0     0     0
SMALL
USER_CHARGES

@<TRIPOS>ATOM
      1 C1         -0.0184    1.5028    0.0103 C.3       1 <0>        -0.0825
      2 C2          0.0021   -0.0041    0.0020 C.2       1 <0>         0.0689
      3 C3          0.0059   -0.7076   -1.1591 C.2       1 <0>        -0.2045
      4 S1          0.0324   -2.3789   -0.5312 S.3       1 <0>         0.1096
      5 C4          0.0357   -2.0088    1.1107 C.2       1 <0>         0.0331
      6 N1          0.0226   -0.6992    1.1217 N.2       1 <0>        -0.5133
      7 C5         -0.0083   -0.2146   -2.5831 C.3       1 <0>        -0.0365
      8 C6          1.4293   -0.0277   -3.0725 C.3       1 <0>         0.1420
      9 N2          1.4155    0.4515   -4.4568 N.am      1 <0>        -0.7431
     10 C7          2.5762    0.6882   -5.0996 C.2       1 <0>         0.7125
     11 O1          3.6348    0.5040   -4.5305 O.2       1 <0>        -0.5638
     12 N3          2.5635    1.1291   -6.3731 N.am      1 <0>        -0.7591
     13 C8          3.8252    1.3864   -7.0718 C.3       1 <0>         0.3701
     14 H1          4.5150    1.9253   -6.4222 H         1 <0>         0.1529
     15 N4          3.5790    2.1568   -8.3170 N.3       1 <0>        -0.6594
     16 C9          3.4913    1.0679   -9.3225 C.3       1 <0>         0.1073
     17 H2          2.4519    0.7805   -9.4811 H         1 <0>         0.0993
     18 N5          4.2460   -0.0463   -8.7345 N.2       1 <0>        -0.1255
     19 N6          4.4269    0.1247   -7.5222 N.2       1 <0>        -0.1452
     20 C10         4.1284    1.5085  -10.6419 C.3       1 <0>        -0.1202
     21 H3          1.0042    1.8801    0.0026 H         1 <0>         0.0770
     22 H4         -0.5455    1.8639   -0.8728 H         1 <0>         0.0739
     23 H5         -0.5286    1.8543    0.9071 H         1 <0>         0.0761
     24 H6          0.0494   -2.6867    1.9513 H         1 <0>         0.2195
     25 H7         -0.5152   -0.9438   -3.2150 H         1 <0>         0.0877
     26 H8         -0.5357    0.7380   -2.6326 H         1 <0>         0.0963
     27 H9          1.9362    0.7015   -2.4406 H         1 <0>         0.0747
     28 H10         1.9567   -0.9803   -3.0230 H         1 <0>         0.0730
     29 H11         0.5710    0.5985   -4.9108 H         1 <0>         0.3971
     30 H12         1.7190    1.2761   -6.8271 H         1 <0>         0.3951
     31 H13         2.7106    2.6675   -8.2604 H         1 <0>         0.3651
     32 H14         5.1772    1.7540  -10.4748 H         1 <0>         0.0710
     33 H15         4.0560    0.6992  -11.3685 H         1 <0>         0.0774
     34 H16         3.6060    2.3862  -11.0224 H         1 <0>         0.0735
@<TRIPOS>BOND
     1    1    2 1
     2    1   21 1
     3    1   22 1
     4    1   23 1
     5    2    6 1
     6    2    3 2
     7    3    4 1
     8    3    7 1
     9    4    5 1
    10    5    6 2
    11    5   24 1
    12    7    8 1
    13    7   25 1
    14    7   26 1
    15    8    9 1
    16    8   27 1
    17    8   28 1
    18    9   10 am
    19    9   29 1
    20   10   11 2
    21   10   12 am
    22   12   13 1
    23   12   30 1
    24   13   14 1
    25   13   19 1
    26   13   15 1
    27   15   16 1
    28   15   31 1
    29   16   17 1
    30   16   18 1
    31   16   20 1
    32   18   19 2
    33   20   32 1
    34   20   33 1
    35   20   34 1
