@<TRIPOS>MOLECULE
ZINC21132567
   48    50     0     0     0
SMALL
USER_CHARGES
N-(2-methoxy-4-nitro-phenyl)-2-[(2Z,5S)-4-oxo-2-[[(2R)-tetrahydrofuran-2-yl]methylimino]thiazolidin-5-yl]acetamide
@<TRIPOS>ATOM
      1 C1         10.8080    0.1961    6.6788 C.3       1 <0>         0.0184
      2 O1          9.8529    1.0619    6.0624 O.3       1 <0>        -0.3092
      3 C2          8.7639    1.4051    6.8007 C.ar      1 <0>         0.1008
      4 C3          8.6180    0.9196    8.0902 C.ar      1 <0>        -0.1280
      5 C4          7.5107    1.2700    8.8399 C.ar      1 <0>        -0.0292
      6 C5          6.5461    2.1051    8.3067 C.ar      1 <0>        -0.0596
      7 C6          6.6865    2.5975    7.0231 C.ar      1 <0>        -0.1038
      8 C7          7.7923    2.2460    6.2628 C.ar      1 <0>         0.1866
      9 N1          7.9345    2.7400    4.9593 N.am      1 <0>        -0.6720
     10 C8          6.8463    3.1162    4.2588 C.2       1 <0>         0.5220
     11 O2          5.7377    2.9343    4.7163 O.2       1 <0>        -0.5032
     12 C9          7.0067    3.7628    2.9070 C.3       1 <0>        -0.1287
     13 C10         5.6274    4.0892    2.3309 C.3       1 <0>        -0.0805
     14 H1          5.2422    4.7434    3.1269 H         1 <0>         0.1645
     15 C11         5.7443    4.8537    1.0223 C.2       1 <0>         0.5385
     16 O3          6.2660    5.9464    0.9594 O.2       1 <0>        -0.4855
     17 N2          5.2422    4.2529   -0.0429 N.am      1 <0>        -0.6696
     18 C12         4.6474    3.0080    0.0240 C.2       1 <0>         0.4036
     19 N3          4.1194    2.3155   -0.9450 N.2       1 <0>        -0.4989
     20 C13         3.5312    1.0021   -0.6707 C.3       1 <0>         0.0613
     21 C14         2.0256    1.0516   -0.9384 C.3       1 <0>         0.0739
     22 H2          1.8734    1.4147   -1.9655 H         1 <0>         0.0821
     23 C15         1.3835   -0.3246   -0.6553 C.3       1 <0>        -0.1476
     24 C16         0.0135    0.0217   -0.0304 C.3       1 <0>        -0.1551
     25 C17        -0.0100    1.5662   -0.0098 C.3       1 <0>         0.0466
     26 O4          1.3804    1.9565   -0.0160 O.3       1 <0>        -0.3656
     27 S1          4.7654    2.5741    1.7529 S.3       1 <0>        -0.1048
     28 N4          7.3574    0.7504   10.2174 N.pl3     1 <0>         0.0299
     29 O5          8.2062    0.0151   10.6889 O.2       1 <0>        -0.1629
     30 O6          6.3824    1.0582   10.8794 O.3       1 <0>        -0.1540
     31 H3         11.6321    0.0004    5.9769 H         1 <0>         0.1126
     32 H4         10.3222   -0.7534    6.9479 H         1 <0>         0.0636
     33 H5         11.2050    0.6749    7.5861 H         1 <0>         0.0639
     34 H6          9.3697    0.2674    8.5098 H         1 <0>         0.1623
     35 H7          5.6831    2.3768    8.8964 H         1 <0>         0.1602
     36 H8          5.9337    3.2529    6.6106 H         1 <0>         0.1752
     37 H9          8.9343    2.8208    4.5077 H         1 <0>         0.4511
     38 H10         7.5895    4.6899    3.0109 H         1 <0>         0.1314
     39 H11         7.5327    3.0730    2.2306 H         1 <0>         0.1148
     40 H12         5.2899    4.7450   -1.0255 H         1 <0>         0.4478
     41 H13         3.9953    0.2488   -1.3243 H         1 <0>         0.1109
     42 H14         3.7080    0.7336    0.3813 H         1 <0>         0.0643
     43 H15         1.2795   -0.8816   -1.5981 H         1 <0>         0.0815
     44 H16         2.0227   -0.8920    0.0371 H         1 <0>         0.0785
     45 H17        -0.7903   -0.3962   -0.6544 H         1 <0>         0.0791
     46 H18        -0.0471   -0.4067    0.9809 H         1 <0>         0.0774
     47 H19        -0.5414    1.9367   -0.8988 H         1 <0>         0.0610
     48 H20        -0.5267    1.9130    0.8972 H         1 <0>         0.0944
@<TRIPOS>BOND
     1    1    2 1
     2    1   31 1
     3    1   32 1
     4    1   33 1
     5    2    3 1
     6    3    8 ar
     7    3    4 ar
     8    4    5 ar
     9    4   34 1
    10    5    6 ar
    11    5   28 1
    12    6    7 ar
    13    6   35 1
    14    7    8 ar
    15    7   36 1
    16    8    9 1
    17    9   10 am
    18    9   37 1
    19   10   11 2
    20   10   12 1
    21   12   13 1
    22   12   38 1
    23   12   39 1
    24   13   14 1
    25   13   27 1
    26   13   15 1
    27   15   16 2
    28   15   17 am
    29   17   18 1
    30   17   40 1
    31   18   19 2
    32   18   27 1
    33   19   20 1
    34   20   21 1
    35   20   41 1
    36   20   42 1
    37   21   22 1
    38   21   26 1
    39   21   23 1
    40   23   24 1
    41   23   43 1
    42   23   44 1
    43   24   25 1
    44   24   45 1
    45   24   46 1
    46   25   26 1
    47   25   47 1
    48   25   48 1
    49   28   29 2
    50   28   30 1
