@<TRIPOS>MOLECULE
ZINC08481338
   45    45     0     0     0
SMALL
USER_CHARGES
[1-[(5-chloro-2-methoxy-benzoyl)aminocarbamoyl]-2-methyl-butyl]urea
@<TRIPOS>ATOM
      1 C1          7.7502    7.8112    0.2839 C.3       1 <0>        -0.1433
      2 C2          7.0944    8.4846   -0.9232 C.3       1 <0>        -0.1135
      3 C3          5.6900    7.9124   -1.1259 C.3       1 <0>        -0.0995
      4 H1          5.7468    6.8261   -1.1952 H         1 <0>         0.0834
      5 C4          5.0913    8.4751   -2.4166 C.3       1 <0>        -0.1490
      6 C5          4.8045    8.3022    0.0594 C.3       1 <0>         0.1628
      7 H2          5.2856    7.9964    0.9884 H         1 <0>         0.1196
      8 C6          3.4688    7.6154   -0.0642 C.2       1 <0>         0.5156
      9 O1          2.5346    8.1941   -0.5774 O.2       1 <0>        -0.5312
     10 N1          3.3123    6.3582    0.3954 N.am      1 <0>        -0.5129
     11 N2          2.0466    5.7579    0.3768 N.am      1 <0>        -0.5229
     12 C7          1.8901    4.5006    0.8364 C.2       1 <0>         0.5674
     13 O2          2.8475    3.8874    1.2673 O.2       1 <0>        -0.5083
     14 C8          0.5572    3.8685    0.8168 C.ar      1 <0>        -0.1585
     15 C9         -0.5455    4.5695    0.3221 C.ar      1 <0>        -0.0369
     16 C10        -1.7884    3.9727    0.3061 C.ar      1 <0>        -0.0821
     17 C11        -1.9479    2.6773    0.7738 C.ar      1 <0>        -0.0342
     18 C12        -0.8671    1.9764    1.2703 C.ar      1 <0>        -0.2052
     19 C13         0.3901    2.5616    1.2937 C.ar      1 <0>         0.1989
     20 O3          1.4539    1.8713    1.7759 O.3       1 <0>        -0.2769
     21 C14         1.2076    0.5439    2.2445 C.3       1 <0>         0.0172
     22 Cl1        -3.1579    4.8443   -0.3093 Cl        1 <0>        -0.0564
     23 N3          4.6084    9.7540    0.0658 N.am      1 <0>        -0.7271
     24 C15         5.5213   10.5547    0.6506 C.2       1 <0>         0.7083
     25 O4          6.5075   10.0721    1.1729 O.2       1 <0>        -0.5786
     26 N4          5.3409   11.8903    0.6565 N.am      1 <0>        -0.8649
     27 H3          7.1008    7.9120    1.1535 H         1 <0>         0.0652
     28 H4          7.9081    6.7543    0.0690 H         1 <0>         0.0425
     29 H5          8.7089    8.2874    0.4893 H         1 <0>         0.0525
     30 H6          7.6946    8.2983   -1.8138 H         1 <0>         0.0585
     31 H7          7.0274    9.5584   -0.7483 H         1 <0>         0.0753
     32 H8          5.0345    9.5614   -2.3473 H         1 <0>         0.0591
     33 H9          5.7221    8.1974   -3.2610 H         1 <0>         0.0603
     34 H10         4.0908    8.0674   -2.5609 H         1 <0>         0.0574
     35 H11         4.0761    5.8689    0.7392 H         1 <0>         0.4360
     36 H12         1.2828    6.2472    0.0330 H         1 <0>         0.4303
     37 H13        -0.4244    5.5770   -0.0475 H         1 <0>         0.1434
     38 H14        -2.9240    2.2155    0.7537 H         1 <0>         0.1455
     39 H15        -1.0000    0.9693    1.6370 H         1 <0>         0.1494
     40 H16         0.4845    0.5746    3.0595 H         1 <0>         0.0608
     41 H17         0.8108   -0.0613    1.4294 H         1 <0>         0.0608
     42 H18         2.1396    0.1059    2.6019 H         1 <0>         0.1081
     43 H19         3.8216   10.1390   -0.3508 H         1 <0>         0.4070
     44 H20         4.5541   12.2753    0.2399 H         1 <0>         0.3980
     45 H21         5.9979   12.4666    1.0774 H         1 <0>         0.4177
@<TRIPOS>BOND
     1    1    2 1
     2    1   27 1
     3    1   28 1
     4    1   29 1
     5    2    3 1
     6    2   30 1
     7    2   31 1
     8    3    4 1
     9    3    5 1
    10    3    6 1
    11    5   32 1
    12    5   33 1
    13    5   34 1
    14    6    7 1
    15    6    8 1
    16    6   23 1
    17    8    9 2
    18    8   10 am
    19   10   11 1
    20   10   35 1
    21   11   12 am
    22   11   36 1
    23   12   13 2
    24   12   14 1
    25   14   19 ar
    26   14   15 ar
    27   15   16 ar
    28   15   37 1
    29   16   17 ar
    30   16   22 1
    31   17   18 ar
    32   17   38 1
    33   18   19 ar
    34   18   39 1
    35   19   20 1
    36   20   21 1
    37   21   40 1
    38   21   41 1
    39   21   42 1
    40   23   24 am
    41   23   43 1
    42   24   25 2
    43   24   26 am
    44   26   44 1
    45   26   45 1
