@<TRIPOS>MOLECULE
ZINC39656593
   64    67     0     0     0
SMALL
USER_CHARGES

@<TRIPOS>ATOM
      1 C1         -1.9592    1.1486   -5.6709 C.3       1 <0>        -0.1415
      2 C2         -1.8758   -0.3690   -5.4958 C.3       1 <0>        -0.0864
      3 S1         -0.2703   -0.8070   -4.7738 S.3       1 <0>        -0.2364
      4 C3         -0.3309   -2.6145   -4.6331 C.3       1 <0>        -0.1097
      5 C4          0.9798   -3.1233   -4.0298 C.3       1 <0>         0.1341
      6 N1          0.9309   -4.5831   -3.9162 N.am      1 <0>        -0.7266
      7 C5          1.9828   -5.2551   -3.4077 C.2       1 <0>         0.5204
      8 O1          2.9698   -4.6513   -3.0442 O.2       1 <0>        -0.5136
      9 C6          1.9325   -6.7567   -3.2908 C.3       1 <0>        -0.1116
     10 H1          0.9045   -7.0916   -3.1523 H         1 <0>         0.1136
     11 C7          2.8168   -7.2349   -2.1175 C.3       1 <0>         0.1111
     12 N2          3.4287   -8.4956   -2.5994 N.am      1 <0>        -0.6103
     13 C8          3.7450   -8.2310   -4.0235 C.3       1 <0>         0.1114
     14 C9          2.5454   -7.4118   -4.5399 C.3       1 <0>        -0.0733
     15 C10         3.0200   -6.3421   -5.5188 C.3       1 <0>        -0.1470
     16 C11         3.5719   -7.0171   -6.7776 C.3       1 <0>        -0.0079
     17 N3          2.5244   -7.8414   -7.3924 N.4       1 <0>        -0.5043
     18 C12         2.1397   -8.9248   -6.4797 C.3       1 <0>        -0.0117
     19 C13         1.5271   -8.3304   -5.2083 C.3       1 <0>        -0.1337
     20 C14         3.6477   -9.6273   -1.9011 C.2       1 <0>         0.6267
     21 O2          4.1646  -10.5857   -2.4428 O.2       1 <0>        -0.5038
     22 C15         3.2612   -9.7033   -0.4821 C.2       1 <0>        -0.2564
     23 C16         2.0120  -10.1380    0.0265 C.2       1 <0>         0.1349
     24 N4          2.0539  -10.0626    1.3231 N.2       1 <0>        -0.2795
     25 O3          3.3246   -9.5784    1.7129 O.3       1 <0>        -0.0446
     26 C17         4.0546   -9.3683    0.6058 C.2       1 <0>         0.1847
     27 C18         5.4455   -8.8694    0.5552 C.2       1 <0>         0.1465
     28 C19         6.2540   -8.5338    1.6697 C.2       1 <0>        -0.2663
     29 C20         7.4482   -8.1225    1.2090 C.2       1 <0>         0.0939
     30 O4          7.4265   -8.1840   -0.1313 O.3       1 <0>        -0.0492
     31 N5          6.1550   -8.6631   -0.5300 N.2       1 <0>        -0.2779
     32 C21         8.6114   -7.6693    2.0531 C.3       1 <0>        -0.0945
     33 C22         0.8382  -10.6067   -0.7943 C.3       1 <0>        -0.0888
     34 H2         -1.8532    1.6328   -4.7001 H         1 <0>         0.0684
     35 H3         -1.1600    1.4825   -6.3326 H         1 <0>         0.0671
     36 H4         -2.9239    1.4118   -6.1048 H         1 <0>         0.0775
     37 H5         -2.6750   -0.7029   -4.8341 H         1 <0>         0.0835
     38 H6         -1.9818   -0.8532   -6.4666 H         1 <0>         0.0816
     39 H7         -1.1625   -2.9012   -3.9895 H         1 <0>         0.0892
     40 H8         -0.4694   -3.0515   -5.6221 H         1 <0>         0.0848
     41 H9          1.8115   -2.8366   -4.6734 H         1 <0>         0.0823
     42 H10         1.1183   -2.6864   -3.0408 H         1 <0>         0.0844
     43 H11         0.1415   -5.0660   -4.2069 H         1 <0>         0.4006
     44 H12         3.5888   -6.4973   -1.8982 H         1 <0>         0.1018
     45 H13         2.2069   -7.4221   -1.2337 H         1 <0>         0.0893
     46 H14         4.6657   -7.6536   -4.1078 H         1 <0>         0.0895
     47 H15         3.8304   -9.1675   -4.5746 H         1 <0>         0.0922
     48 H16         2.1827   -5.6984   -5.7884 H         1 <0>         0.0969
     49 H17         3.8037   -5.7446   -5.0530 H         1 <0>         0.1271
     50 H18         3.8965   -6.2547   -7.4858 H         1 <0>         0.1402
     51 H19         4.4196   -7.6477   -6.5095 H         1 <0>         0.1346
     52 H20         1.7185   -7.2671   -7.5892 H         1 <0>         0.4271
     53 H21         1.4084   -9.5687   -6.9683 H         1 <0>         0.1405
     54 H22         3.0214   -9.5100   -6.2186 H         1 <0>         0.1350
     55 H23         1.2582   -9.1348   -4.5236 H         1 <0>         0.1183
     56 H24         0.6358   -7.7587   -5.4668 H         1 <0>         0.0970
     57 H25         5.9619   -8.5970    2.7075 H         1 <0>         0.1740
     58 H26         9.2398   -8.5262    2.2959 H         1 <0>         0.1030
     59 H27         9.1969   -6.9345    1.5004 H         1 <0>         0.0933
     60 H28         8.2391   -7.2195    2.9734 H         1 <0>         0.1034
     61 H29         0.9088  -11.6835   -0.9475 H         1 <0>         0.1016
     62 H30        -0.0883  -10.3744   -0.2690 H         1 <0>         0.0960
     63 H31         0.8450  -10.1011   -1.7599 H         1 <0>         0.0827
     64 H32         2.8712   -8.2363   -8.2537 H         1 <0>         0.4349
@<TRIPOS>BOND
     1    1    2 1
     2    1   34 1
     3    1   35 1
     4    1   36 1
     5    2    3 1
     6    2   37 1
     7    2   38 1
     8    3    4 1
     9    4    5 1
    10    4   39 1
    11    4   40 1
    12    5    6 1
    13    5   41 1
    14    5   42 1
    15    6    7 am
    16    6   43 1
    17    7    8 2
    18    7    9 1
    19    9   10 1
    20    9   14 1
    21    9   11 1
    22   11   12 1
    23   11   44 1
    24   11   45 1
    25   12   13 1
    26   12   20 am
    27   13   14 1
    28   13   46 1
    29   13   47 1
    30   14   19 1
    31   14   15 1
    32   15   16 1
    33   15   48 1
    34   15   49 1
    35   16   17 1
    36   16   50 1
    37   16   51 1
    38   17   18 1
    39   17   52 1
    40   17   64 1
    41   18   19 1
    42   18   53 1
    43   18   54 1
    44   19   55 1
    45   19   56 1
    46   20   21 2
    47   20   22 1
    48   22   26 2
    49   22   23 1
    50   23   24 2
    51   23   33 1
    52   24   25 1
    53   25   26 1
    54   26   27 1
    55   27   31 2
    56   27   28 1
    57   28   29 2
    58   28   57 1
    59   29   30 1
    60   29   32 1
    61   30   31 1
    62   32   58 1
    63   32   59 1
    64   32   60 1
    65   33   61 1
    66   33   62 1
    67   33   63 1
