@<TRIPOS>MOLECULE
ZINC46883447
   60    61     0     0     0
SMALL
USER_CHARGES

@<TRIPOS>ATOM
      1 C1         -0.0184    1.5028    0.0103 C.3       1 <0>        -0.1111
      2 C2          0.0021   -0.0041    0.0020 C.2       1 <0>         0.0191
      3 C3          0.0066   -0.7246   -1.1640 C.2       1 <0>        -0.2437
      4 C4          0.0255   -2.0980   -1.0904 C.2       1 <0>         0.0491
      5 S1          0.0373   -2.4189    0.5586 S.3       1 <0>         0.3010
      6 C5          0.0233   -0.7465    1.1748 C.2       1 <0>        -0.3473
      7 C6          0.0300   -0.2775    2.5589 C.2       1 <0>         0.6244
      8 O1          0.0160    0.9166    2.7972 O.2       1 <0>        -0.5190
      9 N1          0.0517   -1.1665    3.5717 N.am      1 <0>        -0.7345
     10 C7          0.0585   -0.6963    4.9591 C.3       1 <0>         0.0993
     11 C8          0.0838   -1.8987    5.9050 C.3       1 <0>        -0.0242
     12 N2          0.0906   -1.4272    7.2962 N.4       1 <0>        -0.3794
     13 C9          1.3340   -0.6919    7.5560 C.3       1 <0>        -0.0144
     14 C10         1.3106   -0.1293    8.9789 C.3       1 <0>        -0.1115
     15 H1          0.4613    0.5449    9.0898 H         1 <0>         0.0962
     16 C11         1.1806   -1.2839    9.9764 C.3       1 <0>        -0.1299
     17 C12        -0.0809   -2.0884    9.6495 C.3       1 <0>        -0.1127
     18 H2         -0.1506   -2.9446   10.3204 H         1 <0>         0.1205
     19 C13        -0.0059   -2.5784    8.2018 C.3       1 <0>        -0.0030
     20 C14        -1.3136   -1.1995    9.8258 C.3       1 <0>        -0.1716
     21 C15         2.6083    0.6354    9.2474 C.3       1 <0>        -0.1519
     22 N3          0.0332   -3.0100   -2.1387 N.am      1 <0>        -0.6190
     23 C16         0.0523   -4.3327   -1.8809 C.2       1 <0>         0.5198
     24 O2          0.0628   -4.7270   -0.7340 O.2       1 <0>        -0.4992
     25 C17         0.0606   -5.3219   -3.0178 C.3       1 <0>        -0.0771
     26 C18         0.0824   -6.7447   -2.4558 C.3       1 <0>        -0.1321
     27 C19        -1.1952   -5.1295   -3.8704 C.3       1 <0>        -0.1475
     28 C20         1.3030   -5.0956   -3.8816 C.3       1 <0>        -0.1475
     29 H3          1.0042    1.8801    0.0026 H         1 <0>         0.0791
     30 H4         -0.5455    1.8639   -0.8728 H         1 <0>         0.0694
     31 H5         -0.5286    1.8543    0.9071 H         1 <0>         0.0888
     32 H6         -0.0048   -0.2242   -2.1210 H         1 <0>         0.1435
     33 H7          0.0629   -2.1177    3.3818 H         1 <0>         0.4056
     34 H8          0.9418   -0.0810    5.1300 H         1 <0>         0.0913
     35 H9         -0.8379   -0.1052    5.1468 H         1 <0>         0.0908
     36 H10        -0.7995   -2.5140    5.7341 H         1 <0>         0.1399
     37 H11         0.9802   -2.4898    5.7173 H         1 <0>         0.1387
     38 H12         2.1838   -1.3656    7.4462 H         1 <0>         0.1319
     39 H13         1.4267    0.1276    6.8433 H         1 <0>         0.1335
     40 H14         2.0549   -1.9306    9.9014 H         1 <0>         0.0836
     41 H15         1.1065   -0.8850   10.9881 H         1 <0>         0.0954
     42 H16        -0.9024   -3.1516    7.9659 H         1 <0>         0.1323
     43 H17         0.8724   -3.2119    8.0782 H         1 <0>         0.1315
     44 H18        -1.2440   -0.3443    9.1535 H         1 <0>         0.0516
     45 H19        -2.2111   -1.7726    9.5930 H         1 <0>         0.0734
     46 H20        -1.3640   -0.8482   10.8564 H         1 <0>         0.0853
     47 H21         2.7014    1.4547    8.5345 H         1 <0>         0.0692
     48 H22         2.5910    1.0358   10.2610 H         1 <0>         0.0780
     49 H23         3.4571   -0.0397    9.1379 H         1 <0>         0.0673
     50 H24         0.0248   -2.6947   -3.0559 H         1 <0>         0.4251
     51 H25        -0.8027   -6.9059   -1.8404 H         1 <0>         0.0657
     52 H26         0.0884   -7.4602   -3.2781 H         1 <0>         0.0720
     53 H27         0.9771   -6.8818   -1.8484 H         1 <0>         0.0657
     54 H28        -1.2108   -4.1158   -4.2708 H         1 <0>         0.0612
     55 H29        -1.1892   -5.8449   -4.6927 H         1 <0>         0.0805
     56 H30        -2.0803   -5.2907   -3.2550 H         1 <0>         0.0657
     57 H31         2.1977   -5.2327   -3.2742 H         1 <0>         0.0656
     58 H32         1.3090   -5.8111   -4.7039 H         1 <0>         0.0805
     59 H33         1.2875   -4.0820   -4.2820 H         1 <0>         0.0612
     60 H34        -0.6974   -0.8153    7.4467 H         1 <0>         0.4235
@<TRIPOS>BOND
     1    1    2 1
     2    1   29 1
     3    1   30 1
     4    1   31 1
     5    2    6 2
     6    2    3 1
     7    3    4 2
     8    3   32 1
     9    4    5 1
    10    4   22 1
    11    5    6 1
    12    6    7 1
    13    7    8 2
    14    7    9 am
    15    9   10 1
    16    9   33 1
    17   10   11 1
    18   10   34 1
    19   10   35 1
    20   11   12 1
    21   11   36 1
    22   11   37 1
    23   12   19 1
    24   12   13 1
    25   12   60 1
    26   13   14 1
    27   13   38 1
    28   13   39 1
    29   14   15 1
    30   14   16 1
    31   14   21 1
    32   16   17 1
    33   16   40 1
    34   16   41 1
    35   17   18 1
    36   17   19 1
    37   17   20 1
    38   19   42 1
    39   19   43 1
    40   20   44 1
    41   20   45 1
    42   20   46 1
    43   21   47 1
    44   21   48 1
    45   21   49 1
    46   22   23 am
    47   22   50 1
    48   23   24 2
    49   23   25 1
    50   25   26 1
    51   25   27 1
    52   25   28 1
    53   26   51 1
    54   26   52 1
    55   26   53 1
    56   27   54 1
    57   27   55 1
    58   27   56 1
    59   28   57 1
    60   28   58 1
    61   28   59 1
