@<TRIPOS>MOLECULE
ZINC36847245
   62    65     0     0     0
SMALL
USER_CHARGES

@<TRIPOS>ATOM
      1 C1          1.9985    1.2915   -3.1939 C.ar      1 <0>        -0.1514
      2 C2          2.5590    2.0340   -2.1709 C.ar      1 <0>        -0.0811
      3 C3          3.0951    1.3981   -1.0680 C.ar      1 <0>        -0.1443
      4 C4          3.0703    0.0131   -0.9871 C.ar      1 <0>         0.1209
      5 C5          2.5068   -0.7296   -2.0149 C.ar      1 <0>        -0.1962
      6 C6          1.9725   -0.0887   -3.1158 C.ar      1 <0>        -0.0829
      7 O1          3.5973   -0.6149    0.0966 O.3       1 <0>        -0.2586
      8 C7          3.4865   -1.9681    0.1666 C.ar      1 <0>         0.0989
      9 C8          4.3495   -2.7732   -0.5629 C.ar      1 <0>        -0.1239
     10 C9          4.2377   -4.1477   -0.4918 C.ar      1 <0>        -0.0541
     11 C10         3.2615   -4.7240    0.3100 C.ar      1 <0>         0.1130
     12 C11         2.3981   -3.9178    1.0398 C.ar      1 <0>        -0.1037
     13 C12         2.5143   -2.5435    0.9720 C.ar      1 <0>        -0.1183
     14 N1          3.1473   -6.1183    0.3822 N.pl3     1 <0>        -0.6256
     15 C13         4.2526   -6.8795    0.5059 C.2       1 <0>         0.5478
     16 S1          5.8015   -6.1508    0.4754 S.2       1 <0>        -0.5873
     17 N2          4.1387   -8.2143    0.6536 N.pl3     1 <0>        -0.6794
     18 C14         5.3402   -9.0416    0.7880 C.3       1 <0>         0.1379
     19 C15         4.9345  -10.5089    0.9409 C.3       1 <0>        -0.6602
     20 S2          6.4223  -11.5334    1.1074 S.o2      1 <0>         2.6154
     21 O2          7.1537  -11.5358   -0.1109 O.2       1 <0>        -0.9261
     22 O3          7.0710  -11.2574    2.3412 O.2       1 <0>        -0.9238
     23 N3          5.8572  -13.0821    1.2642 N.pl3     1 <0>        -1.0003
     24 C16         5.5538  -13.6369    2.5909 C.3       1 <0>         0.0988
     25 C17         4.1039  -14.1368    2.5931 C.3       1 <0>         0.0933
     26 N4          3.8963  -14.9808    1.4080 N.pl3     1 <0>        -0.5894
     27 C18         4.1997  -14.4260    0.0814 C.3       1 <0>         0.0819
     28 C19         5.6444  -13.9242    0.0787 C.3       1 <0>         0.1005
     29 C20         3.4220  -16.2808    1.5396 C.ar      1 <0>         0.4437
     30 C21         2.9874  -16.7338    2.7814 C.ar      1 <0>        -0.1994
     31 C22         2.5179  -18.0294    2.8980 C.ar      1 <0>         0.0399
     32 C23         2.4986  -18.8319    1.7647 C.ar      1 <0>        -0.1685
     33 C24         2.9450  -18.3174    0.5642 C.ar      1 <0>         0.1480
     34 N5          3.3828  -17.0752    0.4812 N.ar      1 <0>        -0.5065
     35 H1          1.5762    1.7908   -4.0535 H         1 <0>         0.1261
     36 H2          2.5780    3.1119   -2.2345 H         1 <0>         0.1328
     37 H3          3.5334    1.9784   -0.2696 H         1 <0>         0.1336
     38 H4          2.4865   -1.8077   -1.9545 H         1 <0>         0.1272
     39 H5          1.5342   -0.6663   -3.9162 H         1 <0>         0.1254
     40 H6          5.1085   -2.3248   -1.1867 H         1 <0>         0.1388
     41 H7          4.9093   -4.7743   -1.0599 H         1 <0>         0.1574
     42 H8          1.6384   -4.3655    1.6633 H         1 <0>         0.1326
     43 H9          1.8457   -1.9163    1.5431 H         1 <0>         0.1392
     44 H10         2.2727   -6.5360    0.3432 H         1 <0>         0.4075
     45 H11         3.2611   -8.6271    0.6709 H         1 <0>         0.4000
     46 H12         5.9614   -8.9271   -0.1002 H         1 <0>         0.1068
     47 H13         5.9018   -8.7264    1.6674 H         1 <0>         0.1074
     48 H14         4.3133  -10.6235    1.8292 H         1 <0>         0.1409
     49 H15         4.3729  -10.8241    0.0616 H         1 <0>         0.1395
     50 H16         6.2274  -14.4672    2.8029 H         1 <0>         0.0930
     51 H17         5.6748  -12.8620    3.3478 H         1 <0>         0.1232
     52 H18         3.9197  -14.7207    3.4949 H         1 <0>         0.1164
     53 H19         3.4235  -13.2859    2.5599 H         1 <0>         0.1000
     54 H20         4.0788  -15.2009   -0.6756 H         1 <0>         0.0918
     55 H21         3.5262  -13.5957   -0.1307 H         1 <0>         0.1054
     56 H22         5.8251  -13.3390   -0.8229 H         1 <0>         0.1225
     57 H23         6.3245  -14.7755    0.1078 H         1 <0>         0.0911
     58 H24         3.0166  -16.0826    3.6425 H         1 <0>         0.1796
     59 H25         2.1744  -18.4087    3.8490 H         1 <0>         0.1756
     60 H26         2.1383  -19.8484    1.8222 H         1 <0>         0.1818
     61 H27         2.9321  -18.9382   -0.3195 H         1 <0>         0.2074
     62 H28         3.6871  -16.7371   -0.3755 H         1 <0>         0.4379
@<TRIPOS>BOND
     1    1    6 ar
     2    1    2 ar
     3    1   35 1
     4    2    3 ar
     5    2   36 1
     6    3    4 ar
     7    3   37 1
     8    4    5 ar
     9    4    7 1
    10    5    6 ar
    11    5   38 1
    12    6   39 1
    13    7    8 1
    14    8   13 ar
    15    8    9 ar
    16    9   10 ar
    17    9   40 1
    18   10   11 ar
    19   10   41 1
    20   11   12 ar
    21   11   14 1
    22   12   13 ar
    23   12   42 1
    24   13   43 1
    25   14   15 1
    26   14   44 1
    27   15   16 2
    28   15   17 1
    29   17   18 1
    30   17   45 1
    31   18   19 1
    32   18   46 1
    33   18   47 1
    34   19   20 1
    35   19   48 1
    36   19   49 1
    37   20   21 2
    38   20   22 2
    39   20   23 1
    40   23   28 1
    41   23   24 1
    42   24   25 1
    43   24   50 1
    44   24   51 1
    45   25   26 1
    46   25   52 1
    47   25   53 1
    48   26   27 1
    49   26   29 1
    50   27   28 1
    51   27   54 1
    52   27   55 1
    53   28   56 1
    54   28   57 1
    55   29   34 ar
    56   29   30 ar
    57   30   31 ar
    58   30   58 1
    59   31   32 ar
    60   31   59 1
    61   32   33 ar
    62   32   60 1
    63   33   34 ar
    64   33   61 1
    65   34   62 1
