@<TRIPOS>MOLECULE
ZINC18023308
   61    63     0     0     0
SMALL
USER_CHARGES
5-(diethylsulfamoyl)-2-methyl-N-(8-methyl-1,3-dioxo-2,4-diazaspiro[4.5]decan-2-yl)benzamide
@<TRIPOS>ATOM
      1 C1          1.3130    7.8158   -2.8998 C.3       1 <0>        -0.1754
      2 C2          1.7125    6.3434   -2.7844 C.3       1 <0>         0.1185
      3 N1          2.7828    6.2041   -1.7938 N.pl3     1 <0>        -0.9946
      4 C3          4.1786    6.4063   -2.1901 C.3       1 <0>         0.1074
      5 C4          4.7398    5.1037   -2.7636 C.3       1 <0>        -0.1786
      6 S1          2.4149    5.8179   -0.2260 S.o2      1 <0>         2.6889
      7 O1          1.0713    6.2278   -0.0114 O.2       1 <0>        -0.9494
      8 O2          3.4920    6.2896    0.5719 O.2       1 <0>        -0.9491
      9 C5          2.4306    4.0602   -0.1050 C.ar      1 <0>        -0.6913
     10 C6          3.6023    3.4012    0.2233 C.ar      1 <0>         0.0152
     11 C7          3.6232    2.0214    0.3204 C.ar      1 <0>        -0.1446
     12 C8          2.4740    1.2931    0.0906 C.ar      1 <0>         0.0413
     13 C9          1.2889    1.9515   -0.2405 C.ar      1 <0>        -0.1520
     14 C10         1.2759    3.3437   -0.3420 C.ar      1 <0>         0.0207
     15 C11         0.0539    1.1775   -0.4885 C.2       1 <0>         0.5721
     16 O3          0.0923   -0.0372   -0.5118 O.2       1 <0>        -0.4975
     17 N2         -1.1134    1.8189   -0.6944 N.am      1 <0>        -0.5041
     18 N3         -2.2826    1.0855   -0.9353 N.am      1 <0>        -0.3763
     19 C12        -3.2664    0.9080   -0.0294 C.2       1 <0>         0.5316
     20 O4         -3.3062    1.3360    1.1042 O.2       1 <0>        -0.4434
     21 C13        -4.3091    0.0638   -0.7259 C.3       1 <0>         0.1400
     22 C14        -5.6297    0.8201   -0.8184 C.3       1 <0>        -0.1164
     23 C15        -6.6630   -0.0395   -1.5510 C.3       1 <0>        -0.1120
     24 C16        -6.8608   -1.3538   -0.7930 C.3       1 <0>        -0.0979
     25 C17        -5.5333   -2.1120   -0.7300 C.3       1 <0>        -0.1117
     26 C18        -4.4954   -1.2609    0.0059 C.3       1 <0>        -0.1166
     27 C19        -7.9024   -2.2087   -1.5178 C.3       1 <0>        -0.1490
     28 N4         -3.7494   -0.1613   -2.0645 N.am      1 <0>        -0.7061
     29 C20        -2.5648    0.4789   -2.0947 C.2       1 <0>         0.7079
     30 O5         -1.8329    0.5007   -3.0647 O.2       1 <0>        -0.5231
     31 C21         2.4987   -0.2100    0.1963 C.3       1 <0>        -0.1349
     32 H1          2.1763    8.4031   -3.2127 H         1 <0>         0.0612
     33 H2          0.5166    7.9195   -3.6369 H         1 <0>         0.0706
     34 H3          0.9613    8.1738   -1.9322 H         1 <0>         0.0644
     35 H4          2.0641    5.9854   -3.7520 H         1 <0>         0.0832
     36 H5          0.8492    5.7561   -2.4715 H         1 <0>         0.0796
     37 H6          4.2316    7.1891   -2.9468 H         1 <0>         0.0881
     38 H7          4.7642    6.7022   -1.3197 H         1 <0>         0.0952
     39 H8          4.1542    4.8078   -3.6340 H         1 <0>         0.0624
     40 H9          5.7783    5.2542   -3.0585 H         1 <0>         0.0727
     41 H10         4.6868    4.3209   -2.0069 H         1 <0>         0.0548
     42 H11         4.5045    3.9666    0.4042 H         1 <0>         0.1490
     43 H12         4.5411    1.5131    0.5763 H         1 <0>         0.1465
     44 H13         0.3630    3.8589   -0.6018 H         1 <0>         0.1403
     45 H14        -1.1441    2.7882   -0.6759 H         1 <0>         0.4265
     46 H15        -5.9905    1.0447    0.1853 H         1 <0>         0.0941
     47 H16        -5.4777    1.7504   -1.3658 H         1 <0>         0.0782
     48 H17        -6.3097   -0.2515   -2.5601 H         1 <0>         0.0667
     49 H18        -7.6108    0.4964   -1.6029 H         1 <0>         0.0782
     50 H19        -7.2060   -1.1411    0.2188 H         1 <0>         0.0778
     51 H20        -5.1837   -2.3174   -1.7417 H         1 <0>         0.0666
     52 H21        -5.6766   -3.0519   -0.1969 H         1 <0>         0.0780
     53 H22        -3.5454   -1.7944    0.0382 H         1 <0>         0.0792
     54 H23        -4.8382   -1.0688    1.0226 H         1 <0>         0.0931
     55 H24        -8.0438   -3.1447   -0.9775 H         1 <0>         0.0574
     56 H25        -8.8481   -1.6686   -1.5627 H         1 <0>         0.0574
     57 H26        -7.5572   -2.4217   -2.5295 H         1 <0>         0.0556
     58 H27        -4.1547   -0.6674   -2.7860 H         1 <0>         0.4443
     59 H28         2.6301   -0.6419   -0.7958 H         1 <0>         0.0886
     60 H29         3.3252   -0.5156    0.8379 H         1 <0>         0.0707
     61 H30         1.5588   -0.5597    0.6232 H         1 <0>         0.0998
@<TRIPOS>BOND
     1    1    2 1
     2    1   32 1
     3    1   33 1
     4    1   34 1
     5    2    3 1
     6    2   35 1
     7    2   36 1
     8    3    4 1
     9    3    6 1
    10    4    5 1
    11    4   37 1
    12    4   38 1
    13    5   39 1
    14    5   40 1
    15    5   41 1
    16    6    7 2
    17    6    8 2
    18    6    9 1
    19    9   14 ar
    20    9   10 ar
    21   10   11 ar
    22   10   42 1
    23   11   12 ar
    24   11   43 1
    25   12   13 ar
    26   12   31 1
    27   13   14 ar
    28   13   15 1
    29   14   44 1
    30   15   16 2
    31   15   17 am
    32   17   18 1
    33   17   45 1
    34   18   29 am
    35   18   19 am
    36   19   20 2
    37   19   21 1
    38   21   26 1
    39   21   22 1
    40   21   28 1
    41   22   23 1
    42   22   46 1
    43   22   47 1
    44   23   24 1
    45   23   48 1
    46   23   49 1
    47   24   25 1
    48   24   27 1
    49   24   50 1
    50   25   26 1
    51   25   51 1
    52   25   52 1
    53   26   53 1
    54   26   54 1
    55   27   55 1
    56   27   56 1
    57   27   57 1
    58   28   29 am
    59   28   58 1
    60   29   30 2
    61   31   59 1
    62   31   60 1
    63   31   61 1
