@<TRIPOS>MOLECULE
ZINC20589248
   53    56     0     0     0
SMALL
USER_CHARGES

@<TRIPOS>ATOM
      1 C1         -0.0169    1.3919    0.0097 C.ar      1 <0>        -0.0363
      2 C2          1.1687    2.0960    0.0022 C.ar      1 <0>        -0.1288
      3 C3          2.3788    1.4211   -0.0135 C.ar      1 <0>         0.0994
      4 C4          2.4047    0.0326   -0.0216 C.ar      1 <0>         0.0627
      5 C5          1.2235   -0.6812   -0.0138 C.ar      1 <0>        -0.0958
      6 C6          0.0021   -0.0041    0.0020 C.ar      1 <0>        -0.1215
      7 C7         -1.2657   -0.7625    0.0105 C.2       1 <0>         0.5645
      8 O1         -2.3277   -0.1710    0.0243 O.2       1 <0>        -0.5166
      9 N1         -1.2448   -2.1100    0.0031 N.am      1 <0>        -0.7305
     10 C8         -2.5020   -2.8621    0.0116 C.3       1 <0>         0.1330
     11 C9         -2.1992   -4.3618    0.0005 C.3       1 <0>        -0.1556
     12 C10        -3.4925   -5.1355    0.0092 C.2       1 <0>         0.5235
     13 O2         -4.5520   -4.5454    0.0229 O.2       1 <0>        -0.5155
     14 N2         -3.4716   -6.4830    0.0018 N.am      1 <0>        -0.6216
     15 C11        -2.1959   -7.2119   -0.0086 C.3       1 <0>         0.1049
     16 C12        -2.2003   -8.1957   -1.1831 C.3       1 <0>        -0.1665
     17 C13        -3.4369   -9.0904   -1.0898 C.3       1 <0>         0.1869
     18 C14        -4.7017   -8.2351   -1.1697 C.3       1 <0>        -0.1240
     19 C15        -4.7241   -7.2511    0.0101 C.3       1 <0>         0.1095
     20 C16        -3.4261  -10.0909   -2.2143 C.2       1 <0>         0.0605
     21 C17        -3.0887  -11.3916   -2.0576 C.2       1 <0>         0.0452
     22 N3         -3.1873  -11.9897   -3.2446 N.pl3     1 <0>        -0.4647
     23 C18        -3.5717  -11.1122   -4.1357 C.cat     1 <0>         0.2974
     24 N4         -3.7302   -9.9134   -3.5270 N.pl3     1 <0>        -0.4954
     25 H1         -4.0081   -9.0849   -3.9479 H         1 <0>         0.4646
     26 C19        -2.6800  -11.9805   -0.7296 C.3       1 <0>        -0.0551
     27 C20        -2.3395  -10.8209    0.2167 C.3       1 <0>         0.0484
     28 N5         -3.4180   -9.8234    0.1865 N.3       1 <0>        -0.6739
     29 F1          3.5875   -0.6201   -0.0378 F         1 <0>        -0.1224
     30 F2          3.5373    2.1162   -0.0213 F         1 <0>        -0.1180
     31 H2         -0.9590    1.9197    0.0260 H         1 <0>         0.1576
     32 H3          1.1541    3.1759    0.0081 H         1 <0>         0.1590
     33 H4          1.2437   -1.7610   -0.0201 H         1 <0>         0.1471
     34 H5         -0.3974   -2.5819   -0.0078 H         1 <0>         0.3993
     35 H6         -3.0687   -2.6125    0.9086 H         1 <0>         0.0834
     36 H7         -3.0864   -2.6029   -0.8713 H         1 <0>         0.0816
     37 H8         -1.6325   -4.6115   -0.8965 H         1 <0>         0.1019
     38 H9         -1.6148   -4.6210    0.8833 H         1 <0>         0.1053
     39 H10        -1.3730   -6.5067   -0.1257 H         1 <0>         0.1022
     40 H11        -2.0804   -7.7597    0.9266 H         1 <0>         0.0768
     41 H12        -2.2221   -7.6417   -2.1215 H         1 <0>         0.0825
     42 H13        -1.3019   -8.8118   -1.1448 H         1 <0>         0.0905
     43 H14        -4.7075   -7.6812   -2.1085 H         1 <0>         0.0750
     44 H15        -5.5798   -8.8790   -1.1215 H         1 <0>         0.0965
     45 H16        -4.8090   -7.8016    0.9470 H         1 <0>         0.0827
     46 H17        -5.5701   -6.5718   -0.0949 H         1 <0>         0.1084
     47 H18        -3.7359  -11.3115   -5.1844 H         1 <0>         0.2693
     48 H19        -3.5026  -12.5642   -0.3163 H         1 <0>         0.1148
     49 H20        -1.8053  -12.6172   -0.8621 H         1 <0>         0.1067
     50 H21        -2.2264  -11.2022    1.2315 H         1 <0>         0.1096
     51 H22        -1.4065  -10.3555   -0.1012 H         1 <0>         0.0547
     52 H23        -3.3451   -9.1883    0.9672 H         1 <0>         0.3709
     53 H24        -3.0034  -12.9259   -3.4198 H         1 <0>         0.4659
@<TRIPOS>BOND
     1    1    6 ar
     2    1    2 ar
     3    1   31 1
     4    2    3 ar
     5    2   32 1
     6    3    4 ar
     7    3   30 1
     8    4    5 ar
     9    4   29 1
    10    5    6 ar
    11    5   33 1
    12    6    7 1
    13    7    8 2
    14    7    9 am
    15    9   10 1
    16    9   34 1
    17   10   11 1
    18   10   35 1
    19   10   36 1
    20   11   12 1
    21   11   37 1
    22   11   38 1
    23   12   13 2
    24   12   14 am
    25   14   19 1
    26   14   15 1
    27   15   16 1
    28   15   39 1
    29   15   40 1
    30   16   17 1
    31   16   41 1
    32   16   42 1
    33   17   28 1
    34   17   18 1
    35   17   20 1
    36   18   19 1
    37   18   43 1
    38   18   44 1
    39   19   45 1
    40   19   46 1
    41   20   24 1
    42   20   21 2
    43   21   22 1
    44   21   26 1
    45   22   23 2
    46   22   53 1
    47   23   24 1
    48   23   47 1
    49   24   25 1
    50   26   27 1
    51   26   48 1
    52   26   49 1
    53   27   28 1
    54   27   50 1
    55   27   51 1
    56   28   52 1
