@<TRIPOS>MOLECULE
ZINC40627332
   54    58     0     0     0
SMALL
USER_CHARGES

@<TRIPOS>ATOM
      1 C1          0.1981    0.9417   -1.7562 C.ar      1 <0>        -0.1130
      2 C2          1.3844    1.6721   -1.7901 C.ar      1 <0>        -0.1060
      3 C3          2.5252    1.1815   -1.2316 C.ar      1 <0>        -0.1159
      4 C4          2.5094   -0.0775   -0.6114 C.ar      1 <0>        -0.0609
      5 C5          1.3039   -0.8208   -0.5759 C.ar      1 <0>        -0.0347
      6 C6          0.1459   -0.2824   -1.1636 C.ar      1 <0>        -0.1014
      7 C7          1.2862   -2.0808    0.0457 C.ar      1 <0>        -0.1163
      8 C8          2.4226   -2.5778    0.6078 C.ar      1 <0>        -0.0944
      9 C9          3.6126   -1.8572    0.5797 C.ar      1 <0>        -0.1178
     10 C10         3.6720   -0.6177   -0.0211 C.ar      1 <0>         0.1464
     11 N1          4.8697    0.0961   -0.0446 N.pl3     1 <0>        -0.6325
     12 C11         6.0798   -0.5764    0.0456 C.ar      1 <0>         0.4845
     13 C12         7.2743    0.1304    0.1476 C.ar      1 <0>        -0.2088
     14 C13         8.4611   -0.5906    0.2355 C.ar      1 <0>         0.5245
     15 N2          8.4116   -1.9215    0.2189 N.ar      1 <0>        -0.5449
     16 C14         7.2602   -2.5541    0.1210 C.ar      1 <0>         0.3809
     17 N3          6.1149   -1.9077    0.0414 N.ar      1 <0>        -0.5482
     18 N4          9.6774    0.0666    0.3383 N.pl3     1 <0>        -0.6668
     19 C15        10.1846    0.5008    1.6475 C.3       1 <0>         0.1292
     20 C16        11.5845   -0.0916    1.8517 C.3       1 <0>         0.1342
     21 N5         12.3900    0.1831    0.6535 N.pl3     1 <0>        -0.6709
     22 C17        11.8828   -0.2511   -0.6557 C.3       1 <0>         0.1337
     23 C18        10.4855    0.3363   -0.8592 C.3       1 <0>         0.1300
     24 C19        13.6169    0.8461    0.7573 C.ar      1 <0>         0.1345
     25 C20        14.7868    0.1206    0.9370 C.ar      1 <0>        -0.0960
     26 C21        15.9975    0.7783    1.0386 C.ar      1 <0>        -0.1249
     27 C22        16.0460    2.1580    0.9622 C.ar      1 <0>        -0.0930
     28 C23        14.8834    2.8853    0.7837 C.ar      1 <0>        -0.1513
     29 C24        13.6687    2.2334    0.6749 C.ar      1 <0>         0.0906
     30 F1         12.5335    2.9434    0.4946 F         1 <0>        -0.1334
     31 N6          7.2821    1.6106    0.1618 N.pl3     1 <0>         0.0417
     32 O1          7.2926    2.2050    1.2145 O.2       1 <0>        -0.1278
     33 O2          7.2780    2.2251   -0.8793 O.3       1 <0>        -0.1377
     34 H1         -0.6941    1.3551   -2.2029 H         1 <0>         0.1273
     35 H2          1.3993    2.6411   -2.2666 H         1 <0>         0.1271
     36 H3          3.4377    1.7582   -1.2659 H         1 <0>         0.1172
     37 H4         -0.7806   -0.8371   -1.1445 H         1 <0>         0.1322
     38 H5          0.3718   -2.6546    0.0781 H         1 <0>         0.1311
     39 H6          2.3999   -3.5472    1.0835 H         1 <0>         0.1306
     40 H7          4.4999   -2.2738    1.0332 H         1 <0>         0.1507
     41 H8          4.8567    1.0627   -0.1241 H         1 <0>         0.4213
     42 H9          7.2545   -3.6340    0.1100 H         1 <0>         0.2196
     43 H10        10.2402    1.5890    1.6758 H         1 <0>         0.0714
     44 H11         9.5188    0.1455    2.4340 H         1 <0>         0.0776
     45 H12        12.0534    0.3691    2.7212 H         1 <0>         0.0802
     46 H13        11.5078   -1.1684    2.0020 H         1 <0>         0.0618
     47 H14        12.5486    0.1042   -1.4421 H         1 <0>         0.0797
     48 H15        11.8272   -1.3393   -0.6839 H         1 <0>         0.0624
     49 H16        10.0183   -0.1277   -1.7279 H         1 <0>         0.0768
     50 H17        10.5629    1.4125   -1.0136 H         1 <0>         0.0698
     51 H18        14.7505   -0.9571    0.9976 H         1 <0>         0.1314
     52 H19        16.9076    0.2138    1.1784 H         1 <0>         0.1303
     53 H20        16.9941    2.6690    1.0424 H         1 <0>         0.1329
     54 H21        14.9247    3.9629    0.7248 H         1 <0>         0.1353
@<TRIPOS>BOND
     1    1    6 ar
     2    1    2 ar
     3    1   34 1
     4    2    3 ar
     5    2   35 1
     6    3    4 ar
     7    3   36 1
     8    4   10 ar
     9    4    5 ar
    10    5    6 ar
    11    5    7 ar
    12    6   37 1
    13    7    8 ar
    14    7   38 1
    15    8    9 ar
    16    8   39 1
    17    9   10 ar
    18    9   40 1
    19   10   11 1
    20   11   12 1
    21   11   41 1
    22   12   17 ar
    23   12   13 ar
    24   13   14 ar
    25   13   31 1
    26   14   15 ar
    27   14   18 1
    28   15   16 ar
    29   16   17 ar
    30   16   42 1
    31   18   23 1
    32   18   19 1
    33   19   20 1
    34   19   43 1
    35   19   44 1
    36   20   21 1
    37   20   45 1
    38   20   46 1
    39   21   22 1
    40   21   24 1
    41   22   23 1
    42   22   47 1
    43   22   48 1
    44   23   49 1
    45   23   50 1
    46   24   29 ar
    47   24   25 ar
    48   25   26 ar
    49   25   51 1
    50   26   27 ar
    51   26   52 1
    52   27   28 ar
    53   27   53 1
    54   28   29 ar
    55   28   54 1
    56   29   30 1
    57   31   32 2
    58   31   33 1
