@<TRIPOS>MOLECULE
ZINC36386227
   58    61     0     0     0
SMALL
USER_CHARGES

@<TRIPOS>ATOM
      1 C1         -0.0184    1.5028    0.0103 C.3       1 <0>        -0.0801
      2 C2          0.0021   -0.0041    0.0020 C.2       1 <0>         0.0644
      3 C3          0.0059   -0.7076   -1.1591 C.2       1 <0>        -0.2328
      4 S1          0.0324   -2.3789   -0.5312 S.3       1 <0>         0.1201
      5 C4          0.0357   -2.0088    1.1107 C.2       1 <0>         0.0673
      6 N1          0.0226   -0.6992    1.1217 N.2       1 <0>        -0.5062
      7 C5          0.0549   -2.9548    2.2837 C.3       1 <0>        -0.0515
      8 C6         -1.3594   -3.2903    2.6816 C.2       1 <0>         0.5219
      9 O1         -2.2911   -2.8088    2.0726 O.2       1 <0>        -0.5240
     10 N2         -1.5888   -4.1256    3.7141 N.am      1 <0>        -0.6141
     11 C7         -0.4735   -4.7158    4.4698 C.3       1 <0>         0.1101
     12 C8         -0.7125   -4.4686    5.9631 C.3       1 <0>         0.0401
     13 N3         -2.0446   -4.9663    6.3315 N.3       1 <0>        -0.5197
     14 C9         -3.1021   -4.2336    5.6224 C.3       1 <0>         0.0371
     15 C10        -2.9611   -4.4664    4.1190 C.3       1 <0>         0.1220
     16 C11        -2.2459   -4.9053    7.7853 C.3       1 <0>         0.0424
     17 C12        -3.5089   -5.6427    8.1490 C.2       1 <0>         0.5267
     18 O2         -4.1758   -6.1674    7.2822 O.2       1 <0>        -0.5010
     19 N4         -3.8975   -5.7191    9.4372 N.am      1 <0>        -0.5711
     20 C13        -3.1395   -5.1124   10.4484 C.ar      1 <0>         0.1085
     21 C14        -1.9177   -5.6421   10.8298 C.ar      1 <0>        -0.0983
     22 C15        -1.1949   -5.0431   11.8451 C.ar      1 <0>        -0.1134
     23 C16        -1.6878   -3.9188   12.4821 C.ar      1 <0>        -0.0916
     24 C17        -2.9028   -3.3790   12.1017 C.ar      1 <0>        -0.1224
     25 C18        -3.6271   -3.9663   11.0777 C.ar      1 <0>         0.1402
     26 N5         -4.8315   -3.4057   10.6373 N.am      1 <0>        -0.6761
     27 C19        -5.9262   -4.1791   10.4692 C.2       1 <0>         0.5283
     28 O3         -6.9392   -3.6972   10.0078 O.2       1 <0>        -0.5191
     29 C20        -5.8971   -5.6355   10.8504 C.3       1 <0>        -0.1515
     30 C21        -5.1221   -6.4321    9.8053 C.3       1 <0>         0.1468
     31 C22        -4.7590   -7.8014   10.3831 C.3       1 <0>        -0.1601
     32 H1          1.0042    1.8801    0.0026 H         1 <0>         0.0749
     33 H2         -0.5455    1.8639   -0.8728 H         1 <0>         0.0752
     34 H3         -0.5286    1.8543    0.9071 H         1 <0>         0.0741
     35 H4         -0.0043   -0.3543   -2.1797 H         1 <0>         0.1966
     36 H5          0.5804   -3.8682    2.0052 H         1 <0>         0.1211
     37 H6          0.5661   -2.4828    3.1227 H         1 <0>         0.1257
     38 H7         -0.4285   -5.7880    4.2787 H         1 <0>         0.0854
     39 H8          0.4628   -4.2474    4.1664 H         1 <0>         0.0918
     40 H9          0.0455   -4.9934    6.5446 H         1 <0>         0.0931
     41 H10        -0.6539   -3.3998    6.1688 H         1 <0>         0.0433
     42 H11        -4.0771   -4.5880    5.9567 H         1 <0>         0.1047
     43 H12        -3.0102   -3.1681    5.8328 H         1 <0>         0.0348
     44 H13        -3.6686   -3.8331    3.5838 H         1 <0>         0.0967
     45 H14        -3.1598   -5.5141    3.8936 H         1 <0>         0.0810
     46 H15        -1.3973   -5.3678    8.2894 H         1 <0>         0.1093
     47 H16        -2.3304   -3.8643    8.0971 H         1 <0>         0.0648
     48 H17        -1.5305   -6.5207   10.3352 H         1 <0>         0.1345
     49 H18        -0.2418   -5.4551   12.1421 H         1 <0>         0.1347
     50 H19        -1.1217   -3.4608   13.2798 H         1 <0>         0.1349
     51 H20        -3.2859   -2.5018   12.6019 H         1 <0>         0.1355
     52 H21        -4.8806   -2.4549   10.4517 H         1 <0>         0.4118
     53 H22        -5.4159   -5.7451   11.8223 H         1 <0>         0.0974
     54 H23        -6.9175   -6.0140   10.9098 H         1 <0>         0.1190
     55 H24        -5.7429   -6.5669    8.9196 H         1 <0>         0.1114
     56 H25        -4.1354   -7.6690   11.2672 H         1 <0>         0.0626
     57 H26        -5.6701   -8.3332   10.6575 H         1 <0>         0.0753
     58 H27        -4.2130   -8.3777    9.6363 H         1 <0>         0.0678
@<TRIPOS>BOND
     1    1    2 1
     2    1   32 1
     3    1   33 1
     4    1   34 1
     5    2    6 1
     6    2    3 2
     7    3    4 1
     8    3   35 1
     9    4    5 1
    10    5    6 2
    11    5    7 1
    12    7    8 1
    13    7   36 1
    14    7   37 1
    15    8    9 2
    16    8   10 am
    17   10   15 1
    18   10   11 1
    19   11   12 1
    20   11   38 1
    21   11   39 1
    22   12   13 1
    23   12   40 1
    24   12   41 1
    25   13   14 1
    26   13   16 1
    27   14   15 1
    28   14   42 1
    29   14   43 1
    30   15   44 1
    31   15   45 1
    32   16   17 1
    33   16   46 1
    34   16   47 1
    35   17   18 2
    36   17   19 am
    37   19   30 1
    38   19   20 1
    39   20   25 ar
    40   20   21 ar
    41   21   22 ar
    42   21   48 1
    43   22   23 ar
    44   22   49 1
    45   23   24 ar
    46   23   50 1
    47   24   25 ar
    48   24   51 1
    49   25   26 1
    50   26   27 am
    51   26   52 1
    52   27   28 2
    53   27   29 1
    54   29   30 1
    55   29   53 1
    56   29   54 1
    57   30   31 1
    58   30   55 1
    59   31   56 1
    60   31   57 1
    61   31   58 1
