@<TRIPOS>MOLECULE
ZINC64636562
   58    62     0     0     0
SMALL
USER_CHARGES

@<TRIPOS>ATOM
      1 C1          0.0712    1.4525    0.2511 C.ar      1 <0>        -0.1499
      2 C2          1.2650    2.1867    0.2732 C.ar      1 <0>         0.0539
      3 C3          2.4812    1.6026    0.2329 C.ar      1 <0>        -0.2100
      4 C4          2.5967    0.1867    0.1643 C.ar      1 <0>         0.3293
      5 N1          3.6423   -0.6025    0.1152 N.pl3     1 <0>        -0.5567
      6 C5          3.1768   -1.9925    0.0538 C.3       1 <0>         0.0884
      7 H1          3.5394   -2.5487    0.9183 H         1 <0>         0.1724
      8 C6          1.6660   -1.9252    0.0735 C.2       1 <0>         0.0353
      9 C7          1.3503   -0.6117    0.1398 C.ar      1 <0>        -0.1592
     10 C8          0.0683    0.1015    0.1873 C.ar      1 <0>        -0.0164
     11 C9          3.6599   -2.6539   -1.2385 C.3       1 <0>         0.0560
     12 N2          5.1204   -2.5297   -1.3358 N.3       1 <0>        -0.5483
     13 C10         5.7856   -3.2967   -0.2747 C.3       1 <0>         0.0434
     14 C11         7.2917   -3.0286   -0.3173 C.3       1 <0>        -0.1240
     15 C12         7.8393   -3.4367   -1.6877 C.3       1 <0>         0.1951
     16 C13         7.0965   -2.6590   -2.7777 C.3       1 <0>        -0.1379
     17 C14         5.5960   -2.9378   -2.6638 C.3       1 <0>         0.0633
     18 N3          9.2699   -3.1283   -1.7549 N.pl3     1 <0>        -0.4863
     19 C15        10.2749   -4.0381   -1.9738 C.2       1 <0>         0.0909
     20 C16        11.4543   -3.3809   -1.9686 C.2       1 <0>        -0.0494
     21 N4         11.1790   -2.0145   -1.7390 N.pl3     1 <0>        -0.6182
     22 N5          9.8235   -1.8882   -1.6162 N.3       1 <0>        -0.1598
     23 C17        12.7750   -3.9749   -2.1649 C.2       1 <0>         0.5966
     24 O1         13.0185   -5.0800   -1.7151 O.2       1 <0>        -0.5287
     25 N6         13.7235   -3.2995   -2.8436 N.am      1 <0>        -0.6116
     26 C18        15.0319   -3.9104   -3.1272 C.3       1 <0>         0.0768
     27 C19        15.3265   -3.7497   -4.6230 C.3       1 <0>         0.0470
     28 O2         15.1750   -2.3757   -4.9876 O.3       1 <0>        -0.3757
     29 C20        13.8514   -1.8655   -4.8097 C.3       1 <0>         0.0487
     30 C21        13.4792   -1.9318   -3.3284 C.3       1 <0>         0.0575
     31 H2         -0.8709    1.9791    0.2905 H         1 <0>         0.1577
     32 H3          1.2094    3.2641    0.3243 H         1 <0>         0.1605
     33 H4          3.3715    2.2137    0.2524 H         1 <0>         0.1600
     34 H5          0.9785   -2.7574    0.0407 H         1 <0>         0.2091
     35 H6         -0.8635   -0.4444    0.1717 H         1 <0>         0.1632
     36 H7          3.3846   -3.7085   -1.2319 H         1 <0>         0.0870
     37 H8          3.1958   -2.1625   -2.0936 H         1 <0>         0.1018
     38 H9          5.3900   -2.9939    0.6948 H         1 <0>         0.0775
     39 H10         5.6016   -4.3604   -0.4257 H         1 <0>         0.0532
     40 H11         7.4772   -1.9672   -0.1527 H         1 <0>         0.0842
     41 H12         7.7869   -3.6101    0.4603 H         1 <0>         0.0843
     42 H13         7.6888   -4.5060   -1.8364 H         1 <0>         0.0981
     43 H14         7.2789   -1.5918   -2.6518 H         1 <0>         0.0800
     44 H15         7.4522   -2.9764   -3.7579 H         1 <0>         0.0798
     45 H16         5.4129   -4.0032   -2.8035 H         1 <0>         0.0513
     46 H17         5.0628   -2.3743   -3.4295 H         1 <0>         0.0869
     47 H18        10.1442   -5.0995   -2.1243 H         1 <0>         0.1780
     48 H19        11.8308   -1.2983   -1.6820 H         1 <0>         0.4423
     49 H20         9.4543   -1.2485   -2.3036 H         1 <0>         0.2622
     50 H21        15.8050   -3.4093   -2.5448 H         1 <0>         0.0807
     51 H22        15.0061   -4.9693   -2.8698 H         1 <0>         0.1056
     52 H23        16.3475   -4.0707   -4.8295 H         1 <0>         0.1124
     53 H24        14.6292   -4.3582   -5.1988 H         1 <0>         0.0573
     54 H25        13.8111   -0.8310   -5.1506 H         1 <0>         0.1080
     55 H26        13.1488   -2.4672   -5.3863 H         1 <0>         0.0548
     56 H27        12.4257   -1.6810   -3.2042 H         1 <0>         0.1029
     57 H28        14.0933   -1.2280   -2.7666 H         1 <0>         0.0808
     58 H29         4.5688   -0.3155    0.1185 H         1 <0>         0.4580
@<TRIPOS>BOND
     1    1   10 ar
     2    1    2 ar
     3    1   31 1
     4    2    3 ar
     5    2   32 1
     6    3    4 ar
     7    3   33 1
     8    4    9 ar
     9    4    5 2
    10    5    6 1
    11    5   58 1
    12    6    7 1
    13    6    8 1
    14    6   11 1
    15    8    9 2
    16    8   34 1
    17    9   10 ar
    18   10   35 1
    19   11   12 1
    20   11   36 1
    21   11   37 1
    22   12   17 1
    23   12   13 1
    24   13   14 1
    25   13   38 1
    26   13   39 1
    27   14   15 1
    28   14   40 1
    29   14   41 1
    30   15   16 1
    31   15   18 1
    32   15   42 1
    33   16   17 1
    34   16   43 1
    35   16   44 1
    36   17   45 1
    37   17   46 1
    38   18   22 1
    39   18   19 1
    40   19   20 2
    41   19   47 1
    42   20   21 1
    43   20   23 1
    44   21   22 1
    45   21   48 1
    46   22   49 1
    47   23   24 2
    48   23   25 am
    49   25   30 1
    50   25   26 1
    51   26   27 1
    52   26   50 1
    53   26   51 1
    54   27   28 1
    55   27   52 1
    56   27   53 1
    57   28   29 1
    58   29   30 1
    59   29   54 1
    60   29   55 1
    61   30   56 1
    62   30   57 1
