@<TRIPOS>MOLECULE
ZINC39453024
   48    51     0     0     0
SMALL
USER_CHARGES

@<TRIPOS>ATOM
      1 C1          2.6254   -1.6989    3.2707 C.3       1 <0>        -0.1435
      2 C2          2.5840   -0.7434    2.0765 C.3       1 <0>        -0.5792
      3 C3          3.4792   -1.2839    0.9596 C.3       1 <0>        -0.1379
      4 S1          0.8794   -0.6050    1.4716 S.o2      1 <0>         2.5890
      5 O1          0.7690    0.4825    0.5637 O.2       1 <0>        -0.9157
      6 O2          0.3760   -1.8888    1.1288 O.2       1 <0>        -0.9152
      7 N1         -0.0050   -0.1434    2.7934 N.am      1 <0>        -0.8434
      8 C4          0.2212    1.1120    3.3477 C.2       1 <0>        -0.0830
      9 C5         -0.4881    1.5387    4.4525 C.2       1 <0>         0.2944
     10 C6         -1.5070    0.6613    5.0548 C.ar      1 <0>         0.1992
     11 C7         -1.7179   -0.6142    4.4676 C.ar      1 <0>        -0.1762
     12 C8         -0.9209   -0.9928    3.2904 C.2       1 <0>         0.5603
     13 O3         -1.0884   -2.0792    2.7676 O.2       1 <0>        -0.4461
     14 C9         -2.6637   -1.4813    4.9974 C.ar      1 <0>         0.0395
     15 C10        -3.3891   -1.0515    6.1166 C.ar      1 <0>        -0.1338
     16 C11        -3.1206    0.2788    6.6690 C.ar      1 <0>         0.1702
     17 N2         -2.1961    1.0586    6.1084 N.ar      1 <0>        -0.4518
     18 C12        -3.8541    0.7030    7.7908 C.ar      1 <0>        -0.1050
     19 C13        -4.7896   -0.1200    8.3398 C.ar      1 <0>        -0.0623
     20 C14        -5.0495   -1.3840    7.8234 C.ar      1 <0>        -0.1398
     21 C15        -4.3690   -1.8623    6.7249 C.ar      1 <0>         0.1489
     22 O4         -4.6381   -3.0990    6.2352 O.3       1 <0>        -0.4863
     23 N3         -0.2370    2.7844    4.9946 N.pl3     1 <0>        -0.7165
     24 C16         1.0988    3.3705    4.8049 C.3       1 <0>         0.3153
     25 H1          1.8380    2.7855    5.3520 H         1 <0>         0.0884
     26 C17         1.4252    3.3456    3.3074 C.3       1 <0>        -0.1577
     27 C18         1.1961    1.9573    2.7696 C.2       1 <0>         0.3806
     28 O5          1.8557    1.5599    1.8302 O.2       1 <0>        -0.4307
     29 O6          1.1051    4.7189    5.2781 O.3       1 <0>        -0.3669
     30 C19         1.1221    4.8350    6.7022 C.3       1 <0>         0.0220
     31 H2          2.2684   -2.6815    2.9624 H         1 <0>         0.0763
     32 H3          3.6497   -1.7820    3.6342 H         1 <0>         0.0816
     33 H4          1.9877   -1.3138    4.0664 H         1 <0>         0.0591
     34 H5          2.9410    0.2393    2.3848 H         1 <0>         0.1546
     35 H6          3.1222   -2.2665    0.6513 H         1 <0>         0.0717
     36 H7          3.4497   -0.6032    0.1088 H         1 <0>         0.0737
     37 H8          4.5034   -1.3670    1.3231 H         1 <0>         0.0845
     38 H9         -2.8350   -2.4544    4.5614 H         1 <0>         0.1691
     39 H10        -3.6758    1.6795    8.2164 H         1 <0>         0.1468
     40 H11        -5.3454    0.2189    9.2015 H         1 <0>         0.1427
     41 H12        -5.7998   -2.0033    8.2923 H         1 <0>         0.1427
     42 H13        -4.1007   -3.8020    6.6252 H         1 <0>         0.4011
     43 H14        -0.9238    3.2603    5.4873 H         1 <0>         0.4229
     44 H15         0.7796    4.0500    2.7827 H         1 <0>         0.1272
     45 H16         2.4677    3.6262    3.1576 H         1 <0>         0.1280
     46 H17         1.1260    5.8888    6.9808 H         1 <0>         0.0986
     47 H18         0.2367    4.3529    7.1166 H         1 <0>         0.0505
     48 H19         2.0166    4.3519    7.0955 H         1 <0>         0.0523
@<TRIPOS>BOND
     1    1    2 1
     2    1   31 1
     3    1   32 1
     4    1   33 1
     5    2    3 1
     6    2    4 1
     7    2   34 1
     8    3   35 1
     9    3   36 1
    10    3   37 1
    11    4    5 2
    12    4    6 2
    13    4    7 1
    14    7   12 am
    15    7    8 1
    16    8   27 1
    17    8    9 2
    18    9   10 1
    19    9   23 1
    20   10   17 ar
    21   10   11 ar
    22   11   12 1
    23   11   14 ar
    24   12   13 2
    25   14   15 ar
    26   14   38 1
    27   15   21 ar
    28   15   16 ar
    29   16   17 ar
    30   16   18 ar
    31   18   19 ar
    32   18   39 1
    33   19   20 ar
    34   19   40 1
    35   20   21 ar
    36   20   41 1
    37   21   22 1
    38   22   42 1
    39   23   24 1
    40   23   43 1
    41   24   25 1
    42   24   26 1
    43   24   29 1
    44   26   27 1
    45   26   44 1
    46   26   45 1
    47   27   28 2
    48   29   30 1
    49   30   46 1
    50   30   47 1
    51   30   48 1
