@<TRIPOS>MOLECULE
ZINC16675663
   45    47     0     0     0
SMALL
USER_CHARGES

@<TRIPOS>ATOM
      1 C1         -0.4818    2.7873    0.5981 C.3       1 <0>        -0.1802
      2 C2         -0.5477    1.3095    0.3104 C.2       1 <0>         0.2422
      3 N1         -0.4703    0.4549    1.2838 N.2       1 <0>        -0.3098
      4 N2         -0.3257    0.9061    2.6023 N.pl3     1 <0>        -0.5119
      5 C3         -0.2437   -0.0008    3.6353 C.cat     1 <0>         0.4952
      6 N3         -0.3006   -1.2801    3.3862 N.pl3     1 <0>        -0.7100
      7 S1         -0.0617    0.5667    5.2934 S.3       1 <0>         0.1371
      8 C4         -0.0003   -0.9577    6.2747 C.3       1 <0>        -0.1705
      9 H1          0.7788   -1.6221    5.9008 H         1 <0>         0.1756
     10 C5          0.2308   -0.6350    7.7650 C.3       1 <0>        -0.1221
     11 C6         -1.0078   -1.1799    8.4421 C.2       1 <0>         0.5252
     12 O1         -1.2355   -1.1339    9.6320 O.2       1 <0>        -0.4216
     13 N4         -1.8127   -1.7203    7.5189 N.am      1 <0>        -0.5120
     14 C7         -1.3441   -1.6532    6.2630 C.2       1 <0>         0.5333
     15 O2         -1.9058   -2.0790    5.2767 O.2       1 <0>        -0.4549
     16 C8         -3.0442   -2.3105    7.8377 C.ar      1 <0>         0.1016
     17 C9         -3.2191   -3.6793    7.6860 C.ar      1 <0>        -0.0887
     18 C10        -4.4330   -4.2582    8.0006 C.ar      1 <0>        -0.0770
     19 C11        -5.4741   -3.4751    8.4666 C.ar      1 <0>        -0.0729
     20 C12        -5.3023   -2.1107    8.6186 C.ar      1 <0>        -0.0763
     21 C13        -4.0886   -1.5278    8.3108 C.ar      1 <0>        -0.0872
     22 Br1        -7.1350   -4.2709    8.8958 Br        1 <0>        -0.0219
     23 C14        -0.6999    0.8346   -1.0774 C.ar      1 <0>        -0.0866
     24 C15        -0.7776    1.7518   -2.1282 C.ar      1 <0>        -0.0585
     25 C16        -0.9195    1.3011   -3.4238 C.ar      1 <0>        -0.1130
     26 C17        -0.9849   -0.0575   -3.6843 C.ar      1 <0>         0.0010
     27 C18        -0.9085   -0.9721   -2.6471 C.ar      1 <0>        -0.1172
     28 C19        -0.7612   -0.5346   -1.3475 C.ar      1 <0>        -0.0526
     29 Cl1        -1.1642   -0.6166   -5.3180 Cl        1 <0>        -0.0416
     30 H2          0.5561    3.1183    0.5641 H         1 <0>         0.1126
     31 H3         -1.0607    3.3292   -0.1498 H         1 <0>         0.1125
     32 H4         -0.8934    2.9834    1.5882 H         1 <0>         0.0789
     33 H5         -0.2833    1.8574    2.7875 H         1 <0>         0.4247
     34 H6         -0.2428   -1.9189    4.1138 H         1 <0>         0.4376
     35 H7          1.1233   -1.1410    8.1332 H         1 <0>         0.1627
     36 H8          0.3089    0.4416    7.9168 H         1 <0>         0.1454
     37 H9         -2.4069   -4.2910    7.3220 H         1 <0>         0.1378
     38 H10        -4.5697   -5.3230    7.8825 H         1 <0>         0.1485
     39 H11        -6.1166   -1.5015    8.9822 H         1 <0>         0.1491
     40 H12        -3.9534   -0.4635    8.4342 H         1 <0>         0.1390
     41 H13        -0.7271    2.8116   -1.9263 H         1 <0>         0.1468
     42 H14        -0.9801    2.0092   -4.2370 H         1 <0>         0.1494
     43 H15        -0.9605   -2.0302   -2.8569 H         1 <0>         0.1464
     44 H16        -0.6973   -1.2490   -0.5400 H         1 <0>         0.1409
     45 H17        -0.4008   -1.5924    2.4734 H         1 <0>         0.4430
@<TRIPOS>BOND
     1    1    2 1
     2    1   30 1
     3    1   31 1
     4    1   32 1
     5    2    3 2
     6    2   23 1
     7    3    4 1
     8    4    5 1
     9    4   33 1
    10    5    6 2
    11    5    7 1
    12    6   34 1
    13    6   45 1
    14    7    8 1
    15    8    9 1
    16    8   14 1
    17    8   10 1
    18   10   11 1
    19   10   35 1
    20   10   36 1
    21   11   12 2
    22   11   13 am
    23   13   14 am
    24   13   16 1
    25   14   15 2
    26   16   21 ar
    27   16   17 ar
    28   17   18 ar
    29   17   37 1
    30   18   19 ar
    31   18   38 1
    32   19   20 ar
    33   19   22 1
    34   20   21 ar
    35   20   39 1
    36   21   40 1
    37   23   28 ar
    38   23   24 ar
    39   24   25 ar
    40   24   41 1
    41   25   26 ar
    42   25   42 1
    43   26   27 ar
    44   26   29 1
    45   27   28 ar
    46   27   43 1
    47   28   44 1
