@<TRIPOS>MOLECULE
ZINC39841118
   65    69     0     0     0
SMALL
USER_CHARGES

@<TRIPOS>ATOM
      1 C1          2.1350    1.8012    0.7073 C.3       1 <0>        -0.1069
      2 C2          1.6296    0.4119    0.4147 C.2       1 <0>        -0.1047
      3 C3          1.6895   -0.0853   -0.8504 C.2       1 <0>         0.0093
      4 C4          1.2161   -1.3805   -1.1103 C.2       1 <0>        -0.1383
      5 C5          0.7042   -2.1279   -0.1087 C.2       1 <0>         0.1056
      6 N1          0.6387   -1.6403    1.1644 N.am      1 <0>        -0.4369
      7 C6          1.0969   -0.3826    1.4526 C.2       1 <0>         0.4581
      8 N2          1.0542    0.1238    2.6797 N.2       1 <0>        -0.5632
      9 C7          0.5652   -0.5628    3.7173 C.ar      1 <0>         0.4805
     10 C8          0.0749   -1.8789    3.4994 C.ar      1 <0>        -0.3046
     11 C9          0.1185   -2.4210    2.1404 C.2       1 <0>         0.5626
     12 O1         -0.2879   -3.5428    1.8980 O.2       1 <0>        -0.4382
     13 C10        -0.4389   -2.6118    4.5662 C.ar      1 <0>         0.1491
     14 C11        -0.4509   -2.0123    5.8278 C.ar      1 <0>        -0.2675
     15 C12         0.0527   -0.7001    5.9727 C.ar      1 <0>         0.5572
     16 N3          0.0421   -0.1059    7.2171 N.pl3     1 <0>        -0.7910
     17 N4          0.5327   -0.0317    4.9412 N.ar      1 <0>        -0.4194
     18 C13         1.0431    1.3263    5.1446 C.3       1 <0>         0.0607
     19 C14        -0.0926    2.3327    4.9489 C.3       1 <0>         0.0445
     20 O2          0.4053    3.6573    5.1473 O.3       1 <0>        -0.3763
     21 C15        -0.5808    4.6790    4.9868 C.3       1 <0>         0.0297
     22 C16        -0.9821   -2.7383    6.9918 C.2       1 <0>         0.5839
     23 O3         -0.9004   -2.2495    8.1027 O.2       1 <0>        -0.4980
     24 N5         -1.5593   -3.9451    6.8274 N.am      1 <0>        -0.6038
     25 C17        -2.0593   -4.6286    7.9231 C.2       1 <0>         0.0195
     26 C18        -2.6753   -5.8716    7.9448 C.2       1 <0>        -0.1905
     27 C19        -3.1139   -6.3720    9.2366 C.2       1 <0>        -0.0607
     28 C20        -2.8571   -5.5393   10.2678 C.2       1 <0>        -0.2037
     29 S1         -2.0528   -4.1465    9.5316 S.3       1 <0>         0.3074
     30 C21        -3.1857   -5.7669   11.7111 C.3       1 <0>        -0.0389
     31 C22        -4.1965   -6.9198   11.7996 C.3       1 <0>        -0.1164
     32 C23        -3.6999   -8.0818   10.9345 C.3       1 <0>        -0.1206
     33 C24        -3.8046   -7.7103    9.4537 C.3       1 <0>        -0.0645
     34 C25        -2.8752   -6.6458    6.7185 C.2       1 <0>         0.5237
     35 O4         -2.0218   -7.4296    6.3480 O.2       1 <0>        -0.4867
     36 O5         -4.0057   -6.4902    5.9993 O.3       1 <0>        -0.3456
     37 C26        -4.1341   -7.2777    4.8138 C.3       1 <0>         0.0275
     38 H1          3.1927    1.7558    0.9670 H         1 <0>         0.0892
     39 H2          2.0040    2.4287   -0.1743 H         1 <0>         0.0869
     40 H3          1.5741    2.2238    1.5408 H         1 <0>         0.0878
     41 H4          2.0988    0.5138   -1.6503 H         1 <0>         0.1739
     42 H5          1.2610   -1.7800   -2.1127 H         1 <0>         0.1818
     43 H6          0.3419   -3.1236   -0.3178 H         1 <0>         0.2005
     44 H7         -0.8169   -3.6133    4.4225 H         1 <0>         0.1763
     45 H8          0.1195   -0.6512    8.0156 H         1 <0>         0.4516
     46 H9          1.4394    1.4178    6.1558 H         1 <0>         0.1270
     47 H10         1.8357    1.5283    4.4241 H         1 <0>         0.1493
     48 H11        -0.4889    2.2412    3.9376 H         1 <0>         0.0703
     49 H12        -0.8852    2.1307    5.6694 H         1 <0>         0.0566
     50 H13        -0.9872    4.6362    3.9763 H         1 <0>         0.0498
     51 H14        -1.3835    4.5258    5.7081 H         1 <0>         0.0495
     52 H15        -0.1238    5.6545    5.1536 H         1 <0>         0.1021
     53 H16        -1.6244   -4.3349    5.9415 H         1 <0>         0.4183
     54 H17        -2.2797   -6.0299   12.2571 H         1 <0>         0.0878
     55 H18        -3.6217   -4.8626   12.1357 H         1 <0>         0.0859
     56 H19        -4.2863   -7.2480   12.8351 H         1 <0>         0.0790
     57 H20        -5.1673   -6.5829   11.4360 H         1 <0>         0.0706
     58 H21        -2.6604   -8.2981   11.1809 H         1 <0>         0.0692
     59 H22        -4.3083   -8.9647   11.1302 H         1 <0>         0.0753
     60 H23        -4.8540   -7.6305    9.1700 H         1 <0>         0.0840
     61 H24        -3.3173   -8.4755    8.8494 H         1 <0>         0.0761
     62 H25        -3.3179   -7.0421    4.1310 H         1 <0>         0.0609
     63 H26        -4.0961   -8.3354    5.0744 H         1 <0>         0.0664
     64 H27        -5.0864   -7.0562    4.3319 H         1 <0>         0.1074
     65 H28        -0.0428    0.8573    7.2939 H         1 <0>         0.4236
@<TRIPOS>BOND
     1    1    2 1
     2    1   38 1
     3    1   39 1
     4    1   40 1
     5    2    7 1
     6    2    3 2
     7    3    4 1
     8    3   41 1
     9    4    5 2
    10    4   42 1
    11    5    6 1
    12    5   43 1
    13    6   11 am
    14    6    7 1
    15    7    8 2
    16    8    9 1
    17    9   17 ar
    18    9   10 ar
    19   10   11 1
    20   10   13 ar
    21   11   12 2
    22   13   14 ar
    23   13   44 1
    24   14   15 ar
    25   14   22 1
    26   15   16 1
    27   15   17 ar
    28   16   45 1
    29   16   65 1
    30   17   18 1
    31   18   19 1
    32   18   46 1
    33   18   47 1
    34   19   20 1
    35   19   48 1
    36   19   49 1
    37   20   21 1
    38   21   50 1
    39   21   51 1
    40   21   52 1
    41   22   23 2
    42   22   24 am
    43   24   25 1
    44   24   53 1
    45   25   29 1
    46   25   26 2
    47   26   27 1
    48   26   34 1
    49   27   33 1
    50   27   28 2
    51   28   29 1
    52   28   30 1
    53   30   31 1
    54   30   54 1
    55   30   55 1
    56   31   32 1
    57   31   56 1
    58   31   57 1
    59   32   33 1
    60   32   58 1
    61   32   59 1
    62   33   60 1
    63   33   61 1
    64   34   35 2
    65   34   36 1
    66   36   37 1
    67   37   62 1
    68   37   63 1
    69   37   64 1
