@<TRIPOS>MOLECULE
ZINC00988400
   20    21     0     0     0
SMALL
USER_CHARGES

@<TRIPOS>ATOM
      1 C1         -0.0168    1.3908    0.0097 C.2       1 <0>        -0.2417
      2 C2          0.0021   -0.0041    0.0020 C.2       1 <0>         0.0515
      3 N1         -1.2326   -0.4384    0.0115 N.2       1 <0>        -0.2767
      4 N2         -2.0929    0.6670    0.0256 N.pl3     1 <0>        -0.4653
      5 H1         -3.0624    0.6373    0.0347 H         1 <0>         0.4353
      6 C3         -1.3231    1.7918    0.0303 C.2       1 <0>         0.1255
      7 C4         -1.8113    3.1880    0.0446 C.ar      1 <0>        -0.0465
      8 C5         -1.1562    4.1516    0.8114 C.ar      1 <0>        -0.0330
      9 C6         -1.6160    5.4531    0.8212 C.ar      1 <0>        -0.0949
     10 C7         -2.7260    5.8064    0.0723 C.ar      1 <0>        -0.0389
     11 C8         -3.3830    4.8592   -0.6914 C.ar      1 <0>        -0.1145
     12 C9         -2.9290    3.5496   -0.7154 C.ar      1 <0>         0.1617
     13 O1         -3.5705    2.6194   -1.4699 O.3       1 <0>        -0.4752
     14 Br1        -4.8981    5.3524   -1.7098 Br        1 <0>        -0.0120
     15 Br2        -0.7273    6.7584    1.8616 Br        1 <0>        -0.0197
     16 H2          0.8473    2.0386    0.0049 H         1 <0>         0.1537
     17 H3          0.8875   -0.6223   -0.0097 H         1 <0>         0.1898
     18 H4         -0.2904    3.8796    1.3970 H         1 <0>         0.1534
     19 H5         -3.0804    6.8265    0.0850 H         1 <0>         0.1526
     20 H6         -4.2826    2.1590   -1.0051 H         1 <0>         0.3949
@<TRIPOS>BOND
     1    1    2 1
     2    1   16 1
     3    1    6 2
     4    2    3 2
     5    2   17 1
     6    3    4 1
     7    4    6 1
     8    4    5 1
     9    6    7 1
    10    7   12 ar
    11    7    8 ar
    12    8    9 ar
    13    8   18 1
    14    9   10 ar
    15    9   15 1
    16   10   11 ar
    17   10   19 1
    18   11   12 ar
    19   11   14 1
    20   12   13 1
    21   13   20 1
