@<TRIPOS>MOLECULE
ZINC20714604
   52    55     0     0     0
SMALL
USER_CHARGES

@<TRIPOS>ATOM
      1 C1         -0.0184    1.5028    0.0103 C.3       1 <0>        -0.1306
      2 C2          0.0021   -0.0041    0.0020 C.2       1 <0>         0.0413
      3 C3          0.0061   -0.6954   -1.1674 C.2       1 <0>        -0.2661
      4 C4          0.0259   -2.1051   -1.1488 C.2       1 <0>         0.5112
      5 O1          0.0297   -2.7124   -2.2045 O.2       1 <0>        -0.4630
      6 O2          0.0411   -2.7950    0.0025 O.3       1 <0>        -0.2732
      7 C5          0.0380   -2.1693    1.1991 C.ar      1 <0>         0.1920
      8 C6          0.0243   -0.7629    1.2543 C.ar      1 <0>        -0.1893
      9 C7          0.0261   -0.1105    2.4922 C.ar      1 <0>        -0.0128
     10 C8          0.0465   -0.8421    3.6444 C.ar      1 <0>        -0.1355
     11 C9          0.0655   -2.2344    3.5961 C.ar      1 <0>         0.1937
     12 C10         0.0533   -2.8969    2.3791 C.ar      1 <0>        -0.2314
     13 O3          0.0862   -2.9478    4.7507 O.3       1 <0>        -0.3000
     14 C11         0.1050   -4.3719    4.6332 C.3       1 <0>         0.0186
     15 C12         0.0490   -0.1392    4.9775 C.3       1 <0>        -0.0558
     16 C13         1.4887    0.0070    5.4742 C.3       1 <0>        -0.1287
     17 C14         1.4912    0.7099    6.8073 C.2       1 <0>         0.5090
     18 O4          0.4446    1.0593    7.3104 O.2       1 <0>        -0.4571
     19 N1          2.6566    0.9500    7.4403 N.am      1 <0>        -0.6188
     20 C15         2.6589    1.5961    8.6658 C.2       1 <0>         0.3947
     21 N2          1.6401    2.0399    9.3644 N.2       1 <0>        -0.5197
     22 C16         1.7908    2.6568   10.5563 C.ar      1 <0>         0.1621
     23 C17         0.7852    3.1782   11.4031 C.ar      1 <0>        -0.0873
     24 C18         1.1121    3.7803   12.5898 C.ar      1 <0>        -0.0152
     25 C19         2.4312    3.9002   13.0029 C.ar      1 <0>        -0.6556
     26 C20         3.4403    3.4012   12.2000 C.ar      1 <0>         0.0499
     27 C21         3.1224    2.7968   11.0093 C.ar      1 <0>        -0.1829
     28 S1          4.0492    2.0305    9.7014 S.3       1 <0>         0.0251
     29 S2          2.8166    4.6808   14.5348 S.o2      1 <0>         2.5057
     30 O5          4.1376    5.1768   14.3668 O.2       1 <0>        -0.9346
     31 O6          1.7336    5.5699   14.7713 O.2       1 <0>        -0.9314
     32 C22         2.8033    3.3407   15.7573 C.3       1 <0>        -0.6496
     33 H1          1.0042    1.8801    0.0026 H         1 <0>         0.0925
     34 H2         -0.5455    1.8639   -0.8728 H         1 <0>         0.0855
     35 H3         -0.5286    1.8543    0.9071 H         1 <0>         0.0819
     36 H4         -0.0061   -0.1665   -2.1090 H         1 <0>         0.1635
     37 H5          0.0118    0.9686    2.5359 H         1 <0>         0.1492
     38 H6          0.0678   -3.9764    2.3498 H         1 <0>         0.1514
     39 H7          0.9943   -4.6793    4.0830 H         1 <0>         0.0632
     40 H8          0.1204   -4.8183    5.6275 H         1 <0>         0.1082
     41 H9         -0.7854   -4.7042    4.0995 H         1 <0>         0.0635
     42 H10        -0.3998    0.8481    4.8685 H         1 <0>         0.0870
     43 H11        -0.5260   -0.7224    5.6967 H         1 <0>         0.0919
     44 H12         1.9375   -0.9803    5.5832 H         1 <0>         0.1072
     45 H13         2.0638    0.5902    4.7550 H         1 <0>         0.1051
     46 H14         3.4937    0.6705    7.0378 H         1 <0>         0.4325
     47 H15        -0.2517    3.1012   11.1111 H         1 <0>         0.1452
     48 H16         0.3249    4.1708   13.2177 H         1 <0>         0.1535
     49 H17         4.4720    3.4865   12.5078 H         1 <0>         0.1533
     50 H18         3.5497    2.5941   15.4862 H         1 <0>         0.1320
     51 H19         3.0352    3.7453   16.7425 H         1 <0>         0.1353
     52 H20         1.8168    2.8775   15.7778 H         1 <0>         0.1335
@<TRIPOS>BOND
     1    1    2 1
     2    1   33 1
     3    1   34 1
     4    1   35 1
     5    2    8 1
     6    2    3 2
     7    3    4 1
     8    3   36 1
     9    4    5 2
    10    4    6 1
    11    6    7 1
    12    7   12 ar
    13    7    8 ar
    14    8    9 ar
    15    9   10 ar
    16    9   37 1
    17   10   11 ar
    18   10   15 1
    19   11   12 ar
    20   11   13 1
    21   12   38 1
    22   13   14 1
    23   14   39 1
    24   14   40 1
    25   14   41 1
    26   15   16 1
    27   15   42 1
    28   15   43 1
    29   16   17 1
    30   16   44 1
    31   16   45 1
    32   17   18 2
    33   17   19 am
    34   19   20 1
    35   19   46 1
    36   20   28 1
    37   20   21 2
    38   21   22 1
    39   22   27 ar
    40   22   23 ar
    41   23   24 ar
    42   23   47 1
    43   24   25 ar
    44   24   48 1
    45   25   26 ar
    46   25   29 1
    47   26   27 ar
    48   26   49 1
    49   27   28 1
    50   29   30 2
    51   29   31 2
    52   29   32 1
    53   32   50 1
    54   32   51 1
    55   32   52 1
