@<TRIPOS>MOLECULE
ZINC40001420
   69    72     0     0     0
SMALL
USER_CHARGES

@<TRIPOS>ATOM
      1 C1          0.9862   -0.2030   -0.0458 C.3       1 <0>        -0.1623
      2 C2          0.0397   -0.0362    1.1446 C.3       1 <0>        -0.1369
      3 C3         -1.3782   -0.4328    0.7282 C.3       1 <0>        -0.0271
      4 H1         -1.6572    0.1109   -0.1744 H         1 <0>         0.1525
      5 C4         -1.4271   -1.9371    0.4532 C.3       1 <0>         0.3537
      6 H2         -2.4561   -2.2645    0.3050 H         1 <0>         0.1039
      7 N1         -0.8005   -2.6849    1.5569 N.pl3     1 <0>        -0.6559
      8 N2          0.2847   -3.3702    0.9970 N.2       1 <0>        -0.2787
      9 C5          0.3891   -3.1374   -0.2678 C.2       1 <0>         0.2704
     10 N3         -0.6034   -2.2749   -0.7200 N.pl3     1 <0>        -0.5464
     11 C6         -0.7851   -1.8166   -2.0300 C.ar      1 <0>         0.1443
     12 C7          0.0067   -2.3148   -3.0565 C.ar      1 <0>        -0.1073
     13 C8         -0.1736   -1.8624   -4.3487 C.ar      1 <0>        -0.0979
     14 C9         -1.1449   -0.9103   -4.6215 C.ar      1 <0>         0.1221
     15 C10        -1.9358   -0.4118   -3.5968 C.ar      1 <0>        -0.1653
     16 C11        -1.7611   -0.8676   -2.3050 C.ar      1 <0>        -0.1295
     17 O1         -1.3214   -0.4650   -5.8943 O.3       1 <0>        -0.3084
     18 C12        -2.3395    0.5158   -6.1032 C.3       1 <0>         0.0232
     19 S1          1.6385   -3.8302   -1.2991 S.3       1 <0>         0.0961
     20 C13         2.6213   -4.8549   -0.1700 C.3       1 <0>        -0.1743
     21 H3          2.9662   -4.2462    0.6659 H         1 <0>         0.1336
     22 C14         1.7592   -6.0037    0.3572 C.3       1 <0>        -0.1550
     23 C15         3.8100   -5.4160   -0.9069 C.2       1 <0>         0.4162
     24 O2          3.7771   -5.5293   -2.1154 O.2       1 <0>        -0.3671
     25 C16         4.9613   -5.8099   -0.1925 C.2       1 <0>        -0.0410
     26 C17         5.1270   -5.8323    1.1807 C.ar      1 <0>        -0.0685
     27 C18         4.2740   -5.4963    2.2584 C.ar      1 <0>        -0.0872
     28 C19         4.7072   -5.6171    3.5333 C.ar      1 <0>        -0.0921
     29 C20         5.9970   -6.0718    3.8512 C.ar      1 <0>         0.0215
     30 C21         6.8883   -6.4176    2.8974 C.ar      1 <0>        -0.1717
     31 C22         6.4967   -6.3162    1.4817 C.ar      1 <0>         0.3219
     32 N4          7.1410   -6.5773    0.3803 N.pl3     1 <0>        -0.5341
     33 C23         6.2712   -6.3024   -0.7676 C.3       1 <0>         0.1068
     34 H4          6.1089   -7.2129   -1.3445 H         1 <0>         0.1889
     35 C24         6.8972   -5.2223   -1.6521 C.3       1 <0>        -0.1576
     36 N5         -2.3165   -0.1018    1.8089 N.4       1 <0>        -0.3801
     37 C25        -2.2185    1.3303    2.1210 C.3       1 <0>        -0.0543
     38 C26        -3.6862   -0.4173    1.3819 C.3       1 <0>        -0.0591
     39 H5          1.9582    0.2245    0.2002 H         1 <0>         0.0725
     40 H6          1.1023   -1.2630   -0.2720 H         1 <0>         0.0741
     41 H7          0.5726    0.3105   -0.9137 H         1 <0>         0.0665
     42 H8          0.3699   -0.6751    1.9636 H         1 <0>         0.0907
     43 H9          0.0452    1.0040    1.4702 H         1 <0>         0.0906
     44 H10        -1.0826   -2.6994    2.4848 H         1 <0>         0.4499
     45 H11         0.7634   -3.0555   -2.8442 H         1 <0>         0.1364
     46 H12         0.4420   -2.2497   -5.1471 H         1 <0>         0.1486
     47 H13        -2.6915    0.3297   -3.8101 H         1 <0>         0.1418
     48 H14        -2.3803   -0.4829   -1.5081 H         1 <0>         0.1195
     49 H15        -3.3038    0.1090   -5.7988 H         1 <0>         0.0596
     50 H16        -2.1161    1.4031   -5.5108 H         1 <0>         0.0585
     51 H17        -2.3750    0.7834   -7.1592 H         1 <0>         0.1100
     52 H18         1.4143   -6.6123   -0.4787 H         1 <0>         0.0852
     53 H19         2.3497   -6.6194    1.0357 H         1 <0>         0.0751
     54 H20         0.8994   -5.5978    0.8902 H         1 <0>         0.0975
     55 H21         3.2731   -5.1417    2.0618 H         1 <0>         0.1651
     56 H22         4.0361   -5.3536    4.3374 H         1 <0>         0.1613
     57 H23         6.2850   -6.1468    4.8894 H         1 <0>         0.1712
     58 H24         7.8746   -6.7638    3.1693 H         1 <0>         0.1740
     59 H25         7.0819   -4.3277   -1.0574 H         1 <0>         0.0846
     60 H26         7.8393   -5.5880   -2.0605 H         1 <0>         0.1034
     61 H27         6.2164   -4.9816   -2.4686 H         1 <0>         0.1148
     62 H28        -2.8819    1.5670    2.9529 H         1 <0>         0.1312
     63 H29        -1.1918    1.5731    2.3947 H         1 <0>         0.1280
     64 H30        -2.5092    1.9133    1.2472 H         1 <0>         0.1258
     65 H31        -3.7589   -1.4800    1.1503 H         1 <0>         0.1228
     66 H32        -4.3825   -0.1718    2.1838 H         1 <0>         0.1346
     67 H33        -3.9336    0.1656    0.4947 H         1 <0>         0.1271
     68 H34         8.0521   -6.9060    0.3278 H         1 <0>         0.4618
     69 H35        -2.0875   -0.6415    2.6301 H         1 <0>         0.4208
@<TRIPOS>BOND
     1    1    2 1
     2    1   39 1
     3    1   40 1
     4    1   41 1
     5    2    3 1
     6    2   42 1
     7    2   43 1
     8    3    4 1
     9    3    5 1
    10    3   36 1
    11    5    6 1
    12    5   10 1
    13    5    7 1
    14    7    8 1
    15    7   44 1
    16    8    9 2
    17    9   10 1
    18    9   19 1
    19   10   11 1
    20   11   16 ar
    21   11   12 ar
    22   12   13 ar
    23   12   45 1
    24   13   14 ar
    25   13   46 1
    26   14   15 ar
    27   14   17 1
    28   15   16 ar
    29   15   47 1
    30   16   48 1
    31   17   18 1
    32   18   49 1
    33   18   50 1
    34   18   51 1
    35   19   20 1
    36   20   21 1
    37   20   22 1
    38   20   23 1
    39   22   52 1
    40   22   53 1
    41   22   54 1
    42   23   24 2
    43   23   25 1
    44   25   33 1
    45   25   26 2
    46   26   31 ar
    47   26   27 ar
    48   27   28 ar
    49   27   55 1
    50   28   29 ar
    51   28   56 1
    52   29   30 ar
    53   29   57 1
    54   30   31 ar
    55   30   58 1
    56   31   32 2
    57   32   33 1
    58   32   68 1
    59   33   34 1
    60   33   35 1
    61   35   59 1
    62   35   60 1
    63   35   61 1
    64   36   37 1
    65   36   38 1
    66   36   69 1
    67   37   62 1
    68   37   63 1
    69   37   64 1
    70   38   65 1
    71   38   66 1
    72   38   67 1
