@<TRIPOS>MOLECULE
ZINC39730170
   64    68     0     0     0
SMALL
USER_CHARGES

@<TRIPOS>ATOM
      1 C1         -0.0187    1.5258    0.0104 C.3       1 <0>        -0.1372
      2 C2          0.0021   -0.0041    0.0020 C.3       1 <0>        -0.0571
      3 C3         -1.4320   -0.5377    0.0359 C.3       1 <0>        -0.0730
      4 C4         -1.4072   -2.0449    0.1094 C.2       1 <0>         0.3002
      5 C5         -0.3220   -2.7031    0.6981 C.2       1 <0>        -0.3778
      6 C6         -0.2832   -4.2169    0.7165 C.3       1 <0>         0.0725
      7 H1          0.2762   -4.5592    1.5871 H         1 <0>         0.0972
      8 C7         -1.7159   -4.7344    0.7905 C.3       1 <0>        -0.2165
      9 H2         -2.1141   -4.4950    1.7765 H         1 <0>         0.1128
     10 C8         -2.5579   -4.0326   -0.2394 C.2       1 <0>         0.4939
     11 N1         -3.3984   -4.7103   -0.9934 N.2       1 <0>        -0.6159
     12 C9         -3.4655   -6.0410   -0.9596 C.2       1 <0>         0.4328
     13 N2         -2.6533   -6.7748   -0.2082 N.2       1 <0>        -0.6832
     14 C10        -1.7839   -6.2175    0.6055 C.2       1 <0>         0.5276
     15 O1         -1.0237   -6.9333    1.2289 O.2       1 <0>        -0.5068
     16 S1         -4.6763   -6.8556   -1.9471 S.3       1 <0>         0.0024
     17 C11        -4.4138   -8.6165   -1.5994 C.3       1 <0>        -0.0677
     18 C12        -5.3985   -9.4373   -2.3916 C.ar      1 <0>        -0.0697
     19 C13        -6.6329   -9.7465   -1.8517 C.ar      1 <0>        -0.1006
     20 C14        -7.5362  -10.4993   -2.5784 C.ar      1 <0>        -0.1214
     21 C15        -7.2053  -10.9426   -3.8453 C.ar      1 <0>        -0.1185
     22 C16        -5.9712  -10.6326   -4.3856 C.ar      1 <0>        -0.1212
     23 C17        -5.0696   -9.8761   -3.6605 C.ar      1 <0>        -0.1000
     24 N3         -2.4021   -2.7261   -0.4271 N.2       1 <0>        -0.6078
     25 C18         0.3756   -4.7230   -0.5409 C.ar      1 <0>        -0.1097
     26 C19        -0.1662   -4.4151   -1.7754 C.ar      1 <0>        -0.0750
     27 C20         0.4350   -4.8773   -2.9297 C.ar      1 <0>        -0.1939
     28 C21         1.5851   -5.6522   -2.8496 C.ar      1 <0>         0.2008
     29 C22         2.1266   -5.9596   -1.6078 C.ar      1 <0>        -0.1955
     30 C23         1.5236   -5.4894   -0.4578 C.ar      1 <0>        -0.0474
     31 N4          2.1954   -6.1216   -4.0149 N.pl3     1 <0>        -0.6441
     32 C24         1.6226   -5.7969   -5.3236 C.3       1 <0>         0.0985
     33 C25         3.4083   -6.9387   -3.9286 C.3       1 <0>         0.1021
     34 C26         0.7070   -2.0195    1.2499 C.2       1 <0>         0.3507
     35 O2          1.7200   -2.6992    1.8175 O.3       1 <0>        -0.6037
     36 C27         0.7425   -0.5154    1.2421 C.3       1 <0>        -0.1250
     37 C28         0.7096   -0.5013   -1.2602 C.3       1 <0>        -0.1466
     38 H3          1.0039    1.9031    0.0027 H         1 <0>         0.0568
     39 H4         -0.5459    1.8868   -0.8726 H         1 <0>         0.0579
     40 H5         -0.5289    1.8773    0.9072 H         1 <0>         0.0559
     41 H6         -1.9471   -0.1398    0.9103 H         1 <0>         0.0890
     42 H7         -1.9568   -0.2267   -0.8674 H         1 <0>         0.0914
     43 H8         -3.3985   -8.8952   -1.8815 H         1 <0>         0.1042
     44 H9         -4.5591   -8.8023   -0.5352 H         1 <0>         0.1030
     45 H10        -6.8915   -9.4002   -0.8620 H         1 <0>         0.1257
     46 H11        -8.5004  -10.7415   -2.1563 H         1 <0>         0.1226
     47 H12        -7.9107  -11.5314   -4.4128 H         1 <0>         0.1204
     48 H13        -5.7125  -10.9792   -5.3752 H         1 <0>         0.1225
     49 H14        -4.1069   -9.6308   -4.0841 H         1 <0>         0.1256
     50 H15        -1.0606   -3.8129   -1.8370 H         1 <0>         0.1255
     51 H16         0.0112   -4.6368   -3.8935 H         1 <0>         0.1139
     52 H17         3.0205   -6.5621   -1.5420 H         1 <0>         0.1135
     53 H18         1.9465   -5.7244    0.5078 H         1 <0>         0.1179
     54 H19         2.0563   -4.8661   -5.6892 H         1 <0>         0.0418
     55 H20         1.8426   -6.6007   -6.0261 H         1 <0>         0.0600
     56 H21         0.5428   -5.6822   -5.2293 H         1 <0>         0.0667
     57 H22         3.1968   -7.8438   -3.3591 H         1 <0>         0.0494
     58 H23         3.7364   -7.2093   -4.9322 H         1 <0>         0.0666
     59 H24         4.1940   -6.3711   -3.4301 H         1 <0>         0.0496
     60 H25         1.7777   -0.1752    1.2148 H         1 <0>         0.0827
     61 H26         0.2559   -0.1346    2.1401 H         1 <0>         0.0870
     62 H27         1.7326   -0.1253   -1.2753 H         1 <0>         0.0525
     63 H28         0.7230   -1.5912   -1.2637 H         1 <0>         0.0674
     64 H29         0.1772   -0.1416   -2.1407 H         1 <0>         0.0545
@<TRIPOS>BOND
     1    1    2 1
     2    1   38 1
     3    1   39 1
     4    1   40 1
     5    2   36 1
     6    2    3 1
     7    2   37 1
     8    3    4 1
     9    3   41 1
    10    3   42 1
    11    4   24 2
    12    4    5 1
    13    5    6 1
    14    5   34 2
    15    6    7 1
    16    6    8 1
    17    6   25 1
    18    8    9 1
    19    8   14 1
    20    8   10 1
    21   10   11 2
    22   10   24 1
    23   11   12 1
    24   12   13 2
    25   12   16 1
    26   13   14 1
    27   14   15 2
    28   16   17 1
    29   17   18 1
    30   17   43 1
    31   17   44 1
    32   18   23 ar
    33   18   19 ar
    34   19   20 ar
    35   19   45 1
    36   20   21 ar
    37   20   46 1
    38   21   22 ar
    39   21   47 1
    40   22   23 ar
    41   22   48 1
    42   23   49 1
    43   25   30 ar
    44   25   26 ar
    45   26   27 ar
    46   26   50 1
    47   27   28 ar
    48   27   51 1
    49   28   29 ar
    50   28   31 1
    51   29   30 ar
    52   29   52 1
    53   30   53 1
    54   31   32 1
    55   31   33 1
    56   32   54 1
    57   32   55 1
    58   32   56 1
    59   33   57 1
    60   33   58 1
    61   33   59 1
    62   34   35 1
    63   34   36 1
    64   36   60 1
    65   36   61 1
    66   37   62 1
    67   37   63 1
    68   37   64 1
