@<TRIPOS>MOLECULE
ZINC40484494
   61    64     0     0     0
SMALL
USER_CHARGES

@<TRIPOS>ATOM
      1 C1         -1.2419    1.2586   -0.1043 C.3       1 <0>        -0.1111
      2 C2          0.0032    0.5200    0.3141 C.ar      1 <0>        -0.0998
      3 C3          1.1273    0.5521   -0.4904 C.ar      1 <0>        -0.0983
      4 C4          2.2726   -0.1235   -0.1118 C.ar      1 <0>        -0.1839
      5 C5          2.2964   -0.8354    1.0765 C.ar      1 <0>         0.0931
      6 C6          1.1643   -0.8682    1.8876 C.ar      1 <0>         0.1243
      7 C7          0.0205   -0.1831    1.5038 C.ar      1 <0>        -0.0967
      8 N1          1.1823   -1.5867    3.0897 N.am      1 <0>        -0.6524
      9 C8          0.0298   -2.0407    3.6208 C.2       1 <0>         0.5947
     10 O1         -1.0144   -1.9163    3.0065 O.2       1 <0>        -0.5077
     11 C9          0.0330   -2.6618    4.8922 C.2       1 <0>        -0.2885
     12 C10        -0.0331   -1.8846    5.9829 C.2       1 <0>         0.2122
     13 N2         -0.0466   -2.4061    7.2536 N.pl3     1 <0>        -0.6121
     14 C11        -0.2539   -3.7728    7.3809 C.2       1 <0>         0.4903
     15 N3         -0.5284   -4.4880    8.4371 N.2       1 <0>        -0.5485
     16 C12        -0.6506   -5.7727    8.0880 C.2       1 <0>         0.2141
     17 N4         -0.4521   -5.8893    6.7981 N.2       1 <0>        -0.2896
     18 N5         -0.1895   -4.6085    6.3147 N.pl3     1 <0>        -0.3811
     19 C13         0.1042   -4.1642    4.9561 C.3       1 <0>         0.2928
     20 H1         -0.6231   -4.5922    4.2662 H         1 <0>         0.1186
     21 C14         1.4889   -4.6183    4.5722 C.ar      1 <0>        -0.1408
     22 C15         2.5812   -4.2045    5.3122 C.ar      1 <0>        -0.1113
     23 C16         3.8545   -4.6211    4.9615 C.ar      1 <0>         0.0667
     24 C17         4.0347   -5.4568    3.8633 C.ar      1 <0>         0.1575
     25 C18         2.9395   -5.8703    3.1231 C.ar      1 <0>        -0.2607
     26 C19         1.6653   -5.4552    3.4809 C.ar      1 <0>         0.1665
     27 O2          0.5890   -5.8653    2.7581 O.3       1 <0>        -0.3076
     28 C20         0.8440   -6.7266    1.6467 C.3       1 <0>         0.0269
     29 O3          5.2843   -5.8664    3.5171 O.3       1 <0>        -0.2986
     30 C21         5.3941   -6.7233    2.3788 C.3       1 <0>         0.0237
     31 O4          4.9290   -4.2131    5.6899 O.3       1 <0>        -0.3026
     32 C22         4.6701   -3.3557    6.8035 C.3       1 <0>         0.0274
     33 C23        -0.0940   -0.3890    5.8088 C.3       1 <0>        -0.1349
     34 O5          3.4220   -1.5008    1.4499 O.3       1 <0>        -0.3181
     35 C24         4.5442   -1.4231    0.5686 C.3       1 <0>         0.0302
     36 H2         -1.2094    2.2758    0.2859 H         1 <0>         0.0693
     37 H3         -1.2982    1.2885   -1.1925 H         1 <0>         0.0660
     38 H4         -2.1188    0.7457    0.2909 H         1 <0>         0.0680
     39 H5          1.1106    1.1062   -1.4173 H         1 <0>         0.1256
     40 H6          3.1488   -0.0967   -0.7427 H         1 <0>         0.1314
     41 H7         -0.8573   -0.2026    2.1325 H         1 <0>         0.1525
     42 H8          2.0243   -1.7575    3.5401 H         1 <0>         0.4149
     43 H9          0.0839   -1.8415    8.0314 H         1 <0>         0.4397
     44 H10        -0.8765   -6.5856    8.7623 H         1 <0>         0.2253
     45 H11         2.4412   -3.5557    6.1642 H         1 <0>         0.1340
     46 H12         3.0772   -6.5186    2.2703 H         1 <0>         0.1454
     47 H13         1.4977   -6.2199    0.9368 H         1 <0>         0.0558
     48 H14         1.3263   -7.6391    1.9973 H         1 <0>         0.0571
     49 H15        -0.0975   -6.9779    1.1582 H         1 <0>         0.1047
     50 H16         4.8250   -7.6360    2.5548 H         1 <0>         0.0562
     51 H17         4.9995   -6.2127    1.5003 H         1 <0>         0.0561
     52 H18         6.4417   -6.9746    2.2129 H         1 <0>         0.1047
     53 H19         4.1890   -2.4421    6.4544 H         1 <0>         0.0524
     54 H20         4.0141   -3.8650    7.5094 H         1 <0>         0.0508
     55 H21         5.6099   -3.1061    7.2960 H         1 <0>         0.1030
     56 H22        -1.1278   -0.0838    5.6470 H         1 <0>         0.1002
     57 H23         0.2923    0.0971    6.7047 H         1 <0>         0.0882
     58 H24         0.5094   -0.0984    4.9488 H         1 <0>         0.0926
     59 H25         4.2712   -1.8322   -0.4041 H         1 <0>         0.0550
     60 H26         4.8442   -0.3815    0.4534 H         1 <0>         0.0563
     61 H27         5.3730   -1.9961    0.9842 H         1 <0>         0.1000
@<TRIPOS>BOND
     1    1    2 1
     2    1   36 1
     3    1   37 1
     4    1   38 1
     5    2    7 ar
     6    2    3 ar
     7    3    4 ar
     8    3   39 1
     9    4    5 ar
    10    4   40 1
    11    5    6 ar
    12    5   34 1
    13    6    7 ar
    14    6    8 1
    15    7   41 1
    16    8    9 am
    17    8   42 1
    18    9   10 2
    19    9   11 1
    20   11   19 1
    21   11   12 2
    22   12   13 1
    23   12   33 1
    24   13   14 1
    25   13   43 1
    26   14   18 1
    27   14   15 2
    28   15   16 1
    29   16   17 2
    30   16   44 1
    31   17   18 1
    32   18   19 1
    33   19   20 1
    34   19   21 1
    35   21   26 ar
    36   21   22 ar
    37   22   23 ar
    38   22   45 1
    39   23   24 ar
    40   23   31 1
    41   24   25 ar
    42   24   29 1
    43   25   26 ar
    44   25   46 1
    45   26   27 1
    46   27   28 1
    47   28   47 1
    48   28   48 1
    49   28   49 1
    50   29   30 1
    51   30   50 1
    52   30   51 1
    53   30   52 1
    54   31   32 1
    55   32   53 1
    56   32   54 1
    57   32   55 1
    58   33   56 1
    59   33   57 1
    60   33   58 1
    61   34   35 1
    62   35   59 1
    63   35   60 1
    64   35   61 1
