@<TRIPOS>MOLECULE
ZINC07399652
   44    46     0     0     0
SMALL
USER_CHARGES
2-(4-cyclopropyl-4-methyl-2,5-dioxo-imidazolidin-1-yl)-N-(2,5-dimethylphenyl)-acetamide
@<TRIPOS>ATOM
      1 C1         -2.6352    1.6451    4.9672 C.3       1 <0>        -0.1142
      2 C2         -1.9767    1.8286    3.6242 C.ar      1 <0>        -0.0705
      3 C3         -0.6521    2.2199    3.5521 C.ar      1 <0>        -0.1333
      4 C4         -0.0444    2.3898    2.3219 C.ar      1 <0>        -0.0959
      5 C5         -0.7587    2.1681    1.1606 C.ar      1 <0>        -0.1216
      6 C6         -2.0900    1.7798    1.2295 C.ar      1 <0>         0.1491
      7 C7         -2.6965    1.6063    2.4669 C.ar      1 <0>        -0.1268
      8 N1         -2.8180    1.5601    0.0549 N.am      1 <0>        -0.6638
      9 C8         -4.1608    1.6753    0.0628 C.2       1 <0>         0.5009
     10 O1         -4.7300    2.0663    1.0599 O.2       1 <0>        -0.5031
     11 C9         -4.9549    1.3183   -1.1672 C.3       1 <0>         0.1006
     12 N2         -6.3811    1.5279   -0.9055 N.am      1 <0>        -0.5636
     13 C10        -7.0300    2.6871   -1.1321 C.2       1 <0>         0.5398
     14 O2         -6.5614    3.7145   -1.5731 O.2       1 <0>        -0.4537
     15 C11        -8.4676    2.4392   -0.7202 C.3       1 <0>         0.1568
     16 N3         -8.4611    1.0376   -0.2668 N.am      1 <0>        -0.7127
     17 C12        -7.2014    0.5903   -0.4174 C.2       1 <0>         0.7098
     18 O3         -6.8472   -0.5383   -0.1382 O.2       1 <0>        -0.5381
     19 C13        -8.8697    3.3757    0.4209 C.3       1 <0>        -0.1538
     20 C14        -9.4076    2.6142   -1.9147 C.3       1 <0>        -0.1645
     21 C15       -10.2753    3.8738   -1.9522 C.3       1 <0>        -0.1613
     22 C16       -10.9114    2.5154   -1.6506 C.3       1 <0>        -0.1635
     23 C17        -0.0955    2.3535   -0.1799 C.3       1 <0>        -0.1151
     24 H1         -3.0856    2.5863    5.2827 H         1 <0>         0.0716
     25 H2         -3.4079    0.8800    4.8915 H         1 <0>         0.0662
     26 H3         -1.8886    1.3364    5.6989 H         1 <0>         0.0678
     27 H4         -0.0914    2.3935    4.4587 H         1 <0>         0.1235
     28 H5          0.9900    2.6958    2.2689 H         1 <0>         0.1269
     29 H6         -3.7310    1.3014    2.5239 H         1 <0>         0.1435
     30 H7         -2.3562    1.3248   -0.7650 H         1 <0>         0.4132
     31 H8         -4.6413    1.9501   -1.9982 H         1 <0>         0.1302
     32 H9         -4.7819    0.2724   -1.4205 H         1 <0>         0.1343
     33 H10        -9.2184    0.5342    0.0707 H         1 <0>         0.4411
     34 H11        -8.7813    4.4105    0.0899 H         1 <0>         0.0883
     35 H12        -9.9009    3.1737    0.7105 H         1 <0>         0.0825
     36 H13        -8.2133    3.2102    1.2752 H         1 <0>         0.0743
     37 H14        -9.0371    2.2294   -2.8648 H         1 <0>         0.1142
     38 H15       -10.1765    4.5778   -1.1259 H         1 <0>         0.1071
     39 H16       -10.4757    4.3181   -2.9271 H         1 <0>         0.1036
     40 H17       -11.5303    2.0659   -2.4271 H         1 <0>         0.1032
     41 H18       -11.2310    2.3253   -0.6260 H         1 <0>         0.1002
     42 H19         0.3566    1.4130   -0.4948 H         1 <0>         0.0719
     43 H20         0.6763    3.1191   -0.1006 H         1 <0>         0.0729
     44 H21        -0.8398    2.6625   -0.9139 H         1 <0>         0.0617
@<TRIPOS>BOND
     1    1    2 1
     2    1   24 1
     3    1   25 1
     4    1   26 1
     5    2    7 ar
     6    2    3 ar
     7    3    4 ar
     8    3   27 1
     9    4    5 ar
    10    4   28 1
    11    5    6 ar
    12    5   23 1
    13    6    7 ar
    14    6    8 1
    15    7   29 1
    16    8    9 am
    17    8   30 1
    18    9   10 2
    19    9   11 1
    20   11   12 1
    21   11   31 1
    22   11   32 1
    23   12   17 am
    24   12   13 am
    25   13   14 2
    26   13   15 1
    27   15   16 1
    28   15   19 1
    29   15   20 1
    30   16   17 am
    31   16   33 1
    32   17   18 2
    33   19   34 1
    34   19   35 1
    35   19   36 1
    36   20   22 1
    37   20   21 1
    38   20   37 1
    39   21   22 1
    40   21   38 1
    41   21   39 1
    42   22   40 1
    43   22   41 1
    44   23   42 1
    45   23   43 1
    46   23   44 1
