@<TRIPOS>MOLECULE
ZINC59487643
   46    48     0     0     0
SMALL
USER_CHARGES

@<TRIPOS>ATOM
      1 C1          0.5301    1.7498   -0.3505 C.3       1 <0>        -0.1447
      2 C2          0.7273    0.2577   -0.4268 C.2       1 <0>         0.4566
      3 O1          1.7662   -0.2342   -0.0544 O.2       1 <0>        -0.4895
      4 O2         -0.2514   -0.5250   -0.9086 O.3       1 <0>        -0.2927
      5 C3          0.0065   -1.8516   -1.0558 C.ar      1 <0>         0.0768
      6 C4          0.0307   -2.6783    0.0560 C.ar      1 <0>        -0.0616
      7 C5          0.2952   -4.0413   -0.0909 C.ar      1 <0>        -0.1178
      8 C6          0.5350   -4.5700   -1.3575 C.ar      1 <0>         0.0091
      9 C7          0.5097   -3.7353   -2.4728 C.ar      1 <0>        -0.1189
     10 C8          0.2389   -2.3744   -2.3179 C.ar      1 <0>        -0.0598
     11 C9          0.7635   -4.2910   -3.8192 C.2       1 <0>         0.5679
     12 O3          0.9944   -5.4771   -3.9537 O.2       1 <0>        -0.4899
     13 N1          0.7388   -3.4827   -4.8975 N.am      1 <0>        -0.6505
     14 C10         0.8777   -4.0260   -6.1863 C.2       1 <0>        -0.0262
     15 C11        -0.0907   -3.8509   -7.1173 C.2       1 <0>         0.1632
     16 N2          0.0675   -4.3907   -8.3682 N.am      1 <0>        -0.6302
     17 H1         -0.6262   -4.2650   -9.0344 H         1 <0>         0.4425
     18 C12         1.1706   -5.0910   -8.6842 C.2       1 <0>         0.6983
     19 O4          1.2805   -5.5563   -9.8024 O.2       1 <0>        -0.5347
     20 N3          2.1556   -5.2875   -7.7892 N.am      1 <0>        -0.6529
     21 H2          2.9423   -5.7959   -8.0412 H         1 <0>         0.4363
     22 C13         2.0573   -4.7759   -6.5450 C.2       1 <0>         0.5494
     23 O5          2.9497   -4.9478   -5.7345 O.2       1 <0>        -0.4807
     24 C14         0.3212   -4.9224    1.0961 C.2       1 <0>         0.5676
     25 O6          0.5516   -6.1093    0.9673 O.2       1 <0>        -0.4906
     26 N4          0.0896   -4.4100    2.3210 N.am      1 <0>        -0.6503
     27 C15         0.2154   -5.2251    3.4591 C.2       1 <0>        -0.0264
     28 C16         1.0877   -4.9045    4.4448 C.2       1 <0>         0.1632
     29 N5          1.1926   -5.7157    5.5458 N.am      1 <0>        -0.6300
     30 H3          1.8173   -5.4857    6.2513 H         1 <0>         0.4425
     31 C17         0.4417   -6.8247    5.6613 C.2       1 <0>         0.6984
     32 O7          0.5584   -7.5225    6.6504 O.2       1 <0>        -0.5347
     33 N6         -0.4365   -7.1783    4.7055 N.am      1 <0>        -0.6528
     34 H4         -0.9676   -7.9830    4.8120 H         1 <0>         0.4363
     35 C18        -0.5864   -6.4163    3.6027 C.2       1 <0>         0.5503
     36 O8         -1.3843   -6.7313    2.7384 O.2       1 <0>        -0.4812
     37 H5          0.8691    2.2091   -1.2790 H         1 <0>         0.1109
     38 H6         -0.5271    1.9694   -0.2013 H         1 <0>         0.0993
     39 H7          1.1056    2.1501    0.4842 H         1 <0>         0.1088
     40 H8         -0.1549   -2.2677    1.0375 H         1 <0>         0.1392
     41 H9          0.7402   -5.6239   -1.4744 H         1 <0>         0.1611
     42 H10         0.2144   -1.7276   -3.1824 H         1 <0>         0.1434
     43 H11         0.6252   -2.5261   -4.7840 H         1 <0>         0.4111
     44 H12        -0.9817   -3.2903   -6.8759 H         1 <0>         0.1866
     45 H13        -0.1639   -3.4787    2.4170 H         1 <0>         0.4109
     46 H14         1.6966   -4.0163    4.3640 H         1 <0>         0.1863
@<TRIPOS>BOND
     1    1    2 1
     2    1   37 1
     3    1   38 1
     4    1   39 1
     5    2    3 2
     6    2    4 1
     7    4    5 1
     8    5   10 ar
     9    5    6 ar
    10    6    7 ar
    11    6   40 1
    12    7    8 ar
    13    7   24 1
    14    8    9 ar
    15    8   41 1
    16    9   10 ar
    17    9   11 1
    18   10   42 1
    19   11   12 2
    20   11   13 am
    21   13   14 1
    22   13   43 1
    23   14   22 1
    24   14   15 2
    25   15   16 1
    26   15   44 1
    27   16   17 1
    28   16   18 am
    29   18   19 2
    30   18   20 am
    31   20   21 1
    32   20   22 am
    33   22   23 2
    34   24   25 2
    35   24   26 am
    36   26   27 1
    37   26   45 1
    38   27   35 1
    39   27   28 2
    40   28   29 1
    41   28   46 1
    42   29   30 1
    43   29   31 am
    44   31   32 2
    45   31   33 am
    46   33   34 1
    47   33   35 am
    48   35   36 2
