@<TRIPOS>MOLECULE
ZINC13781163
   63    66     0     0     0
SMALL
USER_CHARGES
(3R,6S,8aS)-N-(3-guanidinopropyl)-6-(1-naphthylsulfonylamino)-5-oxo-2,3,6,7,8,8a-hexahydrothiazolo[2,3-f]pyridine-3-carboxamide
@<TRIPOS>ATOM
      1 C1         -1.7297   -0.8437    0.2667 C.ar      1 <0>        -0.1255
      2 C2         -0.5507   -0.1055    0.1786 C.ar      1 <0>        -0.0901
      3 C3          0.4981   -0.5465   -0.5681 C.ar      1 <0>        -0.1260
      4 C4          0.3944   -1.7647   -1.2615 C.ar      1 <0>         0.0635
      5 C5         -0.8047   -2.5153   -1.1719 C.ar      1 <0>        -0.0697
      6 C6         -1.8663   -2.0272   -0.3911 C.ar      1 <0>        -0.0937
      7 C7         -0.9083   -3.7331   -1.8651 C.ar      1 <0>        -0.0409
      8 C8          0.1411   -4.1747   -2.6113 C.ar      1 <0>        -0.1481
      9 C9          1.3198   -3.4368   -2.6993 C.ar      1 <0>         0.0078
     10 C10         1.4560   -2.2526   -2.0419 C.ar      1 <0>        -0.6560
     11 S1          2.9559   -1.3367   -2.1687 S.o2      1 <0>         2.6914
     12 O1          3.8254   -2.0943   -2.9989 O.2       1 <0>        -0.9520
     13 O2          2.5896    0.0027   -2.4705 O.2       1 <0>        -0.9459
     14 N1          3.6430   -1.3115   -0.6621 N.pl3     1 <0>        -1.0973
     15 C11         4.1449   -2.5515   -0.0651 C.3       1 <0>         0.1475
     16 H1          4.2923   -3.2926   -0.8507 H         1 <0>         0.1321
     17 C12         5.4823   -2.2736    0.6174 C.3       1 <0>        -0.1272
     18 C13         5.8619   -3.4612    1.5107 C.3       1 <0>        -0.1233
     19 C14         4.8631   -3.5193    2.6676 C.3       1 <0>         0.1891
     20 H2          4.9613   -2.6710    3.3449 H         1 <0>         0.1307
     21 N2          3.4969   -3.6213    2.0899 N.am      1 <0>        -0.5992
     22 C15         3.1347   -3.0696    0.9178 C.2       1 <0>         0.5210
     23 O3          1.9555   -2.9875    0.6467 O.2       1 <0>        -0.4964
     24 C16         2.6127   -4.4121    2.9669 C.3       1 <0>         0.1056
     25 H3          1.6607   -4.5929    2.4676 H         1 <0>         0.1384
     26 C17         3.3314   -5.7711    3.2486 C.3       1 <0>        -0.0698
     27 S2          5.0388   -5.1286    3.5422 S.3       1 <0>        -0.2714
     28 C18         2.3835   -3.6758    4.2617 C.2       1 <0>         0.5200
     29 O4          2.9030   -2.5953    4.4449 O.2       1 <0>        -0.5096
     30 N3          1.6014   -4.2179    5.2159 N.am      1 <0>        -0.7298
     31 C19         1.3786   -3.5021    6.4746 C.3       1 <0>         0.1247
     32 C20         0.4609   -4.3298    7.3766 C.3       1 <0>        -0.1473
     33 C21         0.2284   -3.5822    8.6911 C.3       1 <0>         0.0973
     34 N4         -0.6503   -4.3749    9.5548 N.pl3     1 <0>        -0.6979
     35 C22        -1.0021   -3.9020   10.7969 C.cat     1 <0>         0.7412
     36 N5         -0.5294   -2.6852   11.2283 N.pl3     1 <0>        -0.8041
     37 H4         -2.5473   -0.4706    0.8658 H         1 <0>         0.1235
     38 H5         -0.4683    0.8308    0.7107 H         1 <0>         0.1251
     39 H6          1.4054    0.0362   -0.6271 H         1 <0>         0.1256
     40 H7         -2.7858   -2.5884   -0.3132 H         1 <0>         0.1273
     41 H8         -1.8156   -4.3158   -1.8060 H         1 <0>         0.1322
     42 H9          0.0605   -5.1132   -3.1395 H         1 <0>         0.1332
     43 H10         2.1375   -3.8100   -3.2980 H         1 <0>         0.1421
     44 H11         3.7130   -0.4756   -0.1750 H         1 <0>         0.4237
     45 H12         6.2529   -2.1282   -0.1397 H         1 <0>         0.1014
     46 H13         5.3987   -1.3736    1.2267 H         1 <0>         0.0855
     47 H14         6.8701   -3.3215    1.9008 H         1 <0>         0.1036
     48 H15         5.8136   -4.3857    0.9354 H         1 <0>         0.0927
     49 H16         2.9295   -6.2599    4.1361 H         1 <0>         0.1209
     50 H17         3.2953   -6.4302    2.3813 H         1 <0>         0.1161
     51 H18         1.1859   -5.0821    5.0695 H         1 <0>         0.4030
     52 H19         2.3333   -3.3426    6.9758 H         1 <0>         0.0787
     53 H20         0.9118   -2.5392    6.2672 H         1 <0>         0.0759
     54 H21        -0.4937   -4.4893    6.8754 H         1 <0>         0.0892
     55 H22         0.9277   -5.2928    7.5840 H         1 <0>         0.0902
     56 H23         1.1830   -3.4228    9.1924 H         1 <0>         0.0966
     57 H24        -0.2384   -2.6193    8.4837 H         1 <0>         0.0958
     58 H25        -0.9838   -5.2333    9.2503 H         1 <0>         0.4350
     59 H26        -2.0885   -4.3588   12.4580 H         1 <0>         0.4532
     60 H27         0.0523   -2.1604   10.6565 H         1 <0>         0.4396
     61 H28        -0.7777   -2.3515   12.1047 H         1 <0>         0.4394
     62 N6         -1.7993   -4.6661   11.5293 N.pl3     1 <0>        -0.7960
     63 H29        -2.1260   -5.5676   11.1620 H         1 <0>         0.4572
@<TRIPOS>BOND
     1    1    6 ar
     2    1    2 ar
     3    1   37 1
     4    2    3 ar
     5    2   38 1
     6    3    4 ar
     7    3   39 1
     8    4   10 ar
     9    4    5 ar
    10    5    6 ar
    11    5    7 ar
    12    6   40 1
    13    7    8 ar
    14    7   41 1
    15    8    9 ar
    16    8   42 1
    17    9   10 ar
    18    9   43 1
    19   10   11 1
    20   11   12 2
    21   11   13 2
    22   11   14 1
    23   14   15 1
    24   14   44 1
    25   15   16 1
    26   15   22 1
    27   15   17 1
    28   17   18 1
    29   17   45 1
    30   17   46 1
    31   18   19 1
    32   18   47 1
    33   18   48 1
    34   19   20 1
    35   19   27 1
    36   19   21 1
    37   21   22 am
    38   21   24 1
    39   22   23 2
    40   24   25 1
    41   24   26 1
    42   24   28 1
    43   26   27 1
    44   26   49 1
    45   26   50 1
    46   28   29 2
    47   28   30 am
    48   30   31 1
    49   30   51 1
    50   31   32 1
    51   31   52 1
    52   31   53 1
    53   32   33 1
    54   32   54 1
    55   32   55 1
    56   33   34 1
    57   33   56 1
    58   33   57 1
    59   34   35 1
    60   34   58 1
    61   35   36 1
    62   35   62 2
    63   36   60 1
    64   36   61 1
    65   59   62 1
    66   62   63 1
