@<TRIPOS>MOLECULE
ZINC15864473
   65    67     0     0     0
SMALL
USER_CHARGES
ethyl 4-[[(3R)-3-[(2,4-dimethoxyphenyl)carbamoyl]-1-piperidyl]sulfonyl]-2,5-dimethyl-1H-pyrrole-3-carboxylate
@<TRIPOS>ATOM
      1 C1          6.0286    2.8651   -1.9953 C.3       1 <0>        -0.1532
      2 C2          5.0355    1.7582   -1.6354 C.3       1 <0>         0.0611
      3 O1          4.0159    1.6691   -2.6654 O.3       1 <0>        -0.3414
      4 C3          3.0576    0.7360   -2.4986 C.2       1 <0>         0.5422
      5 O2          3.0737    0.0166   -1.5190 O.2       1 <0>        -0.4888
      6 C4          1.9922    0.5884   -3.5022 C.2       1 <0>        -0.1243
      7 C5          2.0056   -0.2277   -4.6130 C.2       1 <0>         0.0832
      8 N1          0.8424   -0.0624   -5.2704 N.pl3     1 <0>        -0.5350
      9 H1          0.5998   -0.5205   -6.0903 H         1 <0>         0.4241
     10 C6          0.0531    0.8404   -4.6198 C.2       1 <0>         0.1629
     11 C7          0.6966    1.2771   -3.5233 C.2       1 <0>        -0.7128
     12 S1          0.1049    2.4497   -2.3487 S.o2      1 <0>         2.7106
     13 O3         -0.8650    3.2425   -3.0195 O.2       1 <0>        -0.9540
     14 O4          1.2506    3.0135   -1.7253 O.2       1 <0>        -0.9488
     15 N2         -0.7034    1.6037   -1.1769 N.pl3     1 <0>        -0.9975
     16 C8         -2.1427    1.3371   -1.3044 C.3       1 <0>         0.1120
     17 C9         -2.8490    1.8267   -0.0363 C.3       1 <0>        -0.1294
     18 C10        -2.1962    1.1810    1.1881 C.3       1 <0>        -0.1098
     19 C11        -0.7223    1.5973    1.2649 C.3       1 <0>        -0.1183
     20 H2         -0.6540    2.6836    1.3225 H         1 <0>         0.1075
     21 C12         0.0050    1.1051    0.0097 C.3       1 <0>         0.1420
     22 C13        -0.0856    0.9872    2.4870 C.2       1 <0>         0.5213
     23 O5          0.8569    0.2330    2.3673 O.2       1 <0>        -0.5164
     24 N3         -0.5633    1.2795    3.7129 N.am      1 <0>        -0.6597
     25 C14        -0.0324    0.6403    4.8434 C.ar      1 <0>         0.0788
     26 C15         1.3147    0.3131    4.8874 C.ar      1 <0>        -0.0428
     27 C16         1.8375   -0.3164    6.0008 C.ar      1 <0>        -0.2249
     28 C17         1.0170   -0.6225    7.0767 C.ar      1 <0>         0.1545
     29 C18        -0.3305   -0.2974    7.0375 C.ar      1 <0>        -0.2269
     30 C19        -0.8565    0.3389    5.9252 C.ar      1 <0>         0.1441
     31 O6         -2.1763    0.6636    5.8870 O.3       1 <0>        -0.3136
     32 C20        -2.9613    0.3242    7.0319 C.3       1 <0>         0.0266
     33 O7          1.5346   -1.2416    8.1710 O.3       1 <0>        -0.3166
     34 C21         2.9304   -1.5469    8.1441 C.3       1 <0>         0.0262
     35 C22        -1.3200    1.2784   -5.0603 C.3       1 <0>        -0.1125
     36 C23         3.1309   -1.1416   -5.0245 C.3       1 <0>        -0.0972
     37 H3          5.5016    3.8164   -2.0682 H         1 <0>         0.0696
     38 H4          6.7939    2.9320   -1.2221 H         1 <0>         0.0806
     39 H5          6.4977    2.6353   -2.9519 H         1 <0>         0.0652
     40 H6          4.5663    1.9880   -0.6787 H         1 <0>         0.0752
     41 H7          5.5625    0.8069   -1.5624 H         1 <0>         0.0695
     42 H8         -2.5374    1.8681   -2.1706 H         1 <0>         0.0958
     43 H9         -2.3067    0.2661   -1.4237 H         1 <0>         0.0728
     44 H10        -2.7609    2.9109    0.0337 H         1 <0>         0.0743
     45 H11        -3.9022    1.5486   -0.0761 H         1 <0>         0.0846
     46 H12        -2.7128    1.5086    2.0902 H         1 <0>         0.0750
     47 H13        -2.2626    0.0962    1.1053 H         1 <0>         0.0740
     48 H14         0.0161    0.0152   -0.0024 H         1 <0>         0.0836
     49 H15         1.0282    1.4809    0.0092 H         1 <0>         0.0998
     50 H16        -1.2742    1.9318    3.8135 H         1 <0>         0.4131
     51 H17         1.9552    0.5501    4.0508 H         1 <0>         0.1514
     52 H18         2.8866   -0.5709    6.0333 H         1 <0>         0.1342
     53 H19        -0.9685   -0.5357    7.8757 H         1 <0>         0.1408
     54 H20        -2.9294   -0.7541    7.1876 H         1 <0>         0.0584
     55 H21        -2.5605    0.8302    7.9102 H         1 <0>         0.0586
     56 H22        -3.9928    0.6377    6.8711 H         1 <0>         0.1027
     57 H23         3.1411   -2.2102    7.3052 H         1 <0>         0.0581
     58 H24         3.5017   -0.6255    8.0311 H         1 <0>         0.0579
     59 H25         3.2129   -2.0378    9.0754 H         1 <0>         0.1014
     60 H26        -1.2321    2.1450   -5.7155 H         1 <0>         0.0989
     61 H27        -1.8060    0.4642   -5.5979 H         1 <0>         0.0812
     62 H28        -1.9149    1.5427   -4.1860 H         1 <0>         0.0967
     63 H29         3.8202   -0.6003   -5.6725 H         1 <0>         0.0876
     64 H30         3.6616   -1.4868   -4.1371 H         1 <0>         0.0873
     65 H31         2.7249   -1.9989   -5.5614 H         1 <0>         0.0787
@<TRIPOS>BOND
     1    1    2 1
     2    1   37 1
     3    1   38 1
     4    1   39 1
     5    2    3 1
     6    2   40 1
     7    2   41 1
     8    3    4 1
     9    4    5 2
    10    4    6 1
    11    6   11 1
    12    6    7 2
    13    7    8 1
    14    7   36 1
    15    8    9 1
    16    8   10 1
    17   10   11 2
    18   10   35 1
    19   11   12 1
    20   12   13 2
    21   12   14 2
    22   12   15 1
    23   15   21 1
    24   15   16 1
    25   16   17 1
    26   16   42 1
    27   16   43 1
    28   17   18 1
    29   17   44 1
    30   17   45 1
    31   18   19 1
    32   18   46 1
    33   18   47 1
    34   19   20 1
    35   19   21 1
    36   19   22 1
    37   21   48 1
    38   21   49 1
    39   22   23 2
    40   22   24 am
    41   24   25 1
    42   24   50 1
    43   25   30 ar
    44   25   26 ar
    45   26   27 ar
    46   26   51 1
    47   27   28 ar
    48   27   52 1
    49   28   29 ar
    50   28   33 1
    51   29   30 ar
    52   29   53 1
    53   30   31 1
    54   31   32 1
    55   32   54 1
    56   32   55 1
    57   32   56 1
    58   33   34 1
    59   34   57 1
    60   34   58 1
    61   34   59 1
    62   35   60 1
    63   35   61 1
    64   35   62 1
    65   36   63 1
    66   36   64 1
    67   36   65 1
