@<TRIPOS>MOLECULE
ZINC17044910
   49    50     0     0     0
SMALL
USER_CHARGES
[2-oxo-2-(2,2,2-trifluoroethylcarbamoylamino)ethyl] 1-(2-nitrophenyl)piperidine-4-carboxylate
@<TRIPOS>ATOM
      1 C1          1.0001   -0.4319    3.7953 C.ar      1 <0>        -0.0588
      2 C2          1.4505    0.5656    4.6409 C.ar      1 <0>        -0.1197
      3 C3          1.1883    1.8920    4.3517 C.ar      1 <0>        -0.0522
      4 C4          0.4753    2.2251    3.2166 C.ar      1 <0>        -0.0263
      5 C5          0.0216    1.2259    2.3652 C.ar      1 <0>         0.1563
      6 C6          0.2818   -0.1062    2.6618 C.ar      1 <0>        -0.1528
      7 N1         -0.6996    1.5592    1.2165 N.pl3     1 <0>        -0.4980
      8 C7         -0.0127    1.0858    0.0080 C.3       1 <0>         0.0643
      9 C8         -0.7525    1.5926   -1.2322 C.3       1 <0>        -0.1007
     10 C9         -2.1941    1.0772   -1.2067 C.3       1 <0>        -0.0773
     11 C10        -2.8718    1.5436    0.0848 C.3       1 <0>        -0.1090
     12 C11        -2.0706    1.0383    1.2868 C.3       1 <0>         0.0662
     13 C12        -2.9443    1.6207   -2.3953 C.2       1 <0>         0.4727
     14 O1         -2.3845    2.3461   -3.1829 O.2       1 <0>        -0.4971
     15 O2         -4.2345    1.2990   -2.5790 O.3       1 <0>        -0.3318
     16 C13        -4.8938    1.8588   -3.7453 C.3       1 <0>         0.0514
     17 C14        -6.3258    1.3911   -3.7855 C.2       1 <0>         0.5201
     18 O3         -6.7489    0.6585   -2.9172 O.2       1 <0>        -0.4367
     19 N2         -7.1362    1.7874   -4.7869 N.am      1 <0>        -0.6854
     20 C15        -8.4170    1.3692   -4.8229 C.2       1 <0>         0.7070
     21 O4         -8.8411    0.6347   -3.9524 O.2       1 <0>        -0.5170
     22 N3         -9.2274    1.7654   -5.8242 N.am      1 <0>        -0.7367
     23 C16       -10.6195    1.3108   -5.8634 C.3       1 <0>         0.0942
     24 C17       -11.3143    1.9007   -7.0923 C.3       1 <0>         0.4501
     25 F1        -10.6528    1.4774   -8.2500 F         1 <0>        -0.1770
     26 F2        -12.6437    1.4666   -7.1297 F         1 <0>        -0.1683
     27 F3        -11.2817    3.2975   -7.0208 F         1 <0>        -0.1767
     28 N4          0.1947    3.6451    2.9081 N.pl3     1 <0>         0.0261
     29 O5          0.5930    4.5208    3.6551 O.2       1 <0>        -0.1966
     30 O6         -0.4344    3.9381    1.9071 O.3       1 <0>        -0.0972
     31 H1          1.2063   -1.4671    4.0243 H         1 <0>         0.1434
     32 H2          2.0079    0.3078    5.5293 H         1 <0>         0.1486
     33 H3          1.5411    2.6684    5.0143 H         1 <0>         0.1561
     34 H4         -0.0734   -0.8859    2.0043 H         1 <0>         0.1436
     35 H5          0.0021   -0.0041    0.0020 H         1 <0>         0.0456
     36 H6          1.0099    1.4629    0.0003 H         1 <0>         0.0846
     37 H7         -0.7556    2.6826   -1.2339 H         1 <0>         0.0932
     38 H8         -0.2511    1.2286   -2.1290 H         1 <0>         0.0832
     39 H9         -2.1922   -0.0122   -1.2441 H         1 <0>         0.1103
     40 H10        -2.9083    2.6328    0.1037 H         1 <0>         0.0887
     41 H11        -3.8852    1.1447    0.1285 H         1 <0>         0.0905
     42 H12        -2.5425    1.3807    2.2077 H         1 <0>         0.0842
     43 H13        -2.0460   -0.0514    1.2747 H         1 <0>         0.0474
     44 H14        -4.8684    2.9471   -3.6896 H         1 <0>         0.1124
     45 H15        -4.3784    1.5290   -4.6473 H         1 <0>         0.1111
     46 H16        -6.7978    2.3736   -5.4816 H         1 <0>         0.4152
     47 H17        -8.8889    2.3516   -6.5190 H         1 <0>         0.4079
     48 H18       -10.6449    0.2225   -5.9190 H         1 <0>         0.1204
     49 H19       -11.1349    1.6406   -4.9613 H         1 <0>         0.1206
@<TRIPOS>BOND
     1    1    6 ar
     2    1    2 ar
     3    1   31 1
     4    2    3 ar
     5    2   32 1
     6    3    4 ar
     7    3   33 1
     8    4    5 ar
     9    4   28 1
    10    5    6 ar
    11    5    7 1
    12    6   34 1
    13    7   12 1
    14    7    8 1
    15    8    9 1
    16    8   35 1
    17    8   36 1
    18    9   10 1
    19    9   37 1
    20    9   38 1
    21   10   11 1
    22   10   13 1
    23   10   39 1
    24   11   12 1
    25   11   40 1
    26   11   41 1
    27   12   42 1
    28   12   43 1
    29   13   14 2
    30   13   15 1
    31   15   16 1
    32   16   17 1
    33   16   44 1
    34   16   45 1
    35   17   18 2
    36   17   19 am
    37   19   20 am
    38   19   46 1
    39   20   21 2
    40   20   22 am
    41   22   23 1
    42   22   47 1
    43   23   24 1
    44   23   48 1
    45   23   49 1
    46   24   25 1
    47   24   26 1
    48   24   27 1
    49   28   29 2
    50   28   30 1
