@<TRIPOS>MOLECULE
ZINC06559636
   61    65     0     0     0
SMALL
USER_CHARGES

@<TRIPOS>ATOM
      1 C1         -0.0187    1.5258    0.0104 C.3       1 <0>        -0.1711
      2 C2          0.0021   -0.0041    0.0020 C.3       1 <0>         0.0948
      3 N1          0.6878   -0.4765   -1.2033 N.pl3     1 <0>        -0.4476
      4 C3          0.1260   -0.7475   -2.4204 C.2       1 <0>         0.1643
      5 N2          1.0842   -1.1402   -3.2111 N.2       1 <0>        -0.2581
      6 N3          2.2050   -1.1360   -2.5821 N.2       1 <0>        -0.2931
      7 C4          2.0214   -0.7320   -1.3465 C.2       1 <0>         0.1480
      8 S1          3.2609   -0.5561   -0.1066 S.3       1 <0>         0.0911
      9 C5          4.7921   -1.0519   -0.9433 C.3       1 <0>        -0.1448
     10 C6          5.9472   -0.9462    0.0188 C.2       1 <0>         0.5316
     11 O1          5.7562   -0.5731    1.1569 O.2       1 <0>        -0.4479
     12 N4          7.1924   -1.2663   -0.3855 N.am      1 <0>        -0.6084
     13 C7          8.2584   -1.1687    0.5024 C.2       1 <0>         0.2291
     14 N5          8.2560   -0.7939    1.7664 N.2       1 <0>        -0.2979
     15 N6          9.3159   -0.7549    2.4533 N.2       1 <0>        -0.2361
     16 C8         10.4573   -1.0986    1.8911 C.2       1 <0>         0.0365
     17 S2          9.8902   -1.5059    0.2457 S.3       1 <0>         0.0822
     18 C9         11.8468   -1.1420    2.4728 C.3       1 <0>        -0.0607
     19 C10        -1.3316   -0.6167   -2.7801 C.3       1 <0>         0.2121
     20 N7         -1.5903    0.7335   -3.2865 N.am      1 <0>        -0.7273
     21 C11        -2.8338    1.0817   -3.6723 C.2       1 <0>         0.5284
     22 O2         -3.7387    0.2773   -3.6003 O.2       1 <0>        -0.5296
     23 C12        -3.1000    2.4706   -4.1932 C.3       1 <0>        -0.0670
     24 C13        -2.7469    3.4963   -3.1142 C.3       1 <0>        -0.0992
     25 C14        -3.0172    4.9063   -3.6430 C.3       1 <0>        -0.0837
     26 C15        -4.4970    5.0391   -4.0082 C.3       1 <0>        -0.1104
     27 C16        -4.8500    4.0135   -5.0872 C.3       1 <0>        -0.0869
     28 C17        -4.5798    2.6034   -4.5584 C.3       1 <0>        -0.0872
     29 C18        -3.9934    4.2650   -6.3298 C.3       1 <0>        -0.1107
     30 C19        -2.5136    4.1322   -5.9645 C.3       1 <0>        -0.0840
     31 C20        -2.1606    5.1579   -4.8855 C.3       1 <0>        -0.1102
     32 C21        -2.2434    2.7221   -5.4357 C.3       1 <0>        -0.1005
     33 H1          1.0039    1.9031    0.0027 H         1 <0>         0.0704
     34 H2         -0.5459    1.8868   -0.8726 H         1 <0>         0.0644
     35 H3         -0.5289    1.8773    0.9072 H         1 <0>         0.0873
     36 H4          0.5293   -0.3651    0.8851 H         1 <0>         0.1044
     37 H5         -1.0205   -0.3814    0.0098 H         1 <0>         0.1041
     38 H6          4.7002   -2.0816   -1.2890 H         1 <0>         0.1360
     39 H7          4.9686   -0.3967   -1.7963 H         1 <0>         0.1359
     40 H8          7.3451   -1.5647   -1.2958 H         1 <0>         0.4328
     41 H9         12.0307   -2.1272    2.9014 H         1 <0>         0.0967
     42 H10        12.5761   -0.9458    1.6868 H         1 <0>         0.0918
     43 H11        11.9387   -0.3843    3.2510 H         1 <0>         0.1027
     44 H12        -1.5831   -1.3474   -3.5488 H         1 <0>         0.1074
     45 H13        -1.9418   -0.7959   -1.8949 H         1 <0>         0.0895
     46 H14        -0.8667    1.3768   -3.3440 H         1 <0>         0.4027
     47 H15        -3.3572    3.3171   -2.2290 H         1 <0>         0.0688
     48 H16        -1.6927    3.4016   -2.8539 H         1 <0>         0.0629
     49 H17        -2.7656    5.6370   -2.8743 H         1 <0>         0.0746
     50 H18        -5.1072    4.8599   -3.1230 H         1 <0>         0.0635
     51 H19        -4.6895    6.0437   -4.3850 H         1 <0>         0.0651
     52 H20        -5.9042    4.1081   -5.3474 H         1 <0>         0.0753
     53 H21        -4.8313    1.8727   -5.3271 H         1 <0>         0.0707
     54 H22        -5.1900    2.4242   -3.6732 H         1 <0>         0.0700
     55 H23        -4.2449    3.5343   -7.0985 H         1 <0>         0.0641
     56 H24        -4.1859    5.2695   -6.7065 H         1 <0>         0.0650
     57 H25        -1.9034    4.3114   -6.8497 H         1 <0>         0.0752
     58 H26        -2.3531    6.1624   -5.2622 H         1 <0>         0.0661
     59 H27        -1.1063    5.0632   -4.6253 H         1 <0>         0.0622
     60 H28        -1.1892    2.6275   -5.1755 H         1 <0>         0.0648
     61 H29        -2.4949    1.9914   -6.2044 H         1 <0>         0.0702
@<TRIPOS>BOND
     1    1    2 1
     2    1   33 1
     3    1   34 1
     4    1   35 1
     5    2    3 1
     6    2   36 1
     7    2   37 1
     8    3    7 1
     9    3    4 1
    10    4    5 2
    11    4   19 1
    12    5    6 1
    13    6    7 2
    14    7    8 1
    15    8    9 1
    16    9   10 1
    17    9   38 1
    18    9   39 1
    19   10   11 2
    20   10   12 am
    21   12   13 1
    22   12   40 1
    23   13   17 1
    24   13   14 2
    25   14   15 1
    26   15   16 2
    27   16   17 1
    28   16   18 1
    29   18   41 1
    30   18   42 1
    31   18   43 1
    32   19   20 1
    33   19   44 1
    34   19   45 1
    35   20   21 am
    36   20   46 1
    37   21   22 2
    38   21   23 1
    39   23   28 1
    40   23   32 1
    41   23   24 1
    42   24   25 1
    43   24   47 1
    44   24   48 1
    45   25   31 1
    46   25   26 1
    47   25   49 1
    48   26   27 1
    49   26   50 1
    50   26   51 1
    51   27   28 1
    52   27   29 1
    53   27   52 1
    54   28   53 1
    55   28   54 1
    56   29   30 1
    57   29   55 1
    58   29   56 1
    59   30   31 1
    60   30   32 1
    61   30   57 1
    62   31   58 1
    63   31   59 1
    64   32   60 1
    65   32   61 1
