@<TRIPOS>MOLECULE
ZINC51036757
   30    32     0     0     0
SMALL
USER_CHARGES

@<TRIPOS>ATOM
      1 C1         -0.0167    1.3834    0.0096 C.ar      1 <0>        -0.0994
      2 C2          1.1643    2.0990    0.0022 C.ar      1 <0>        -0.1289
      3 C3          2.3808    1.4344   -0.0129 C.ar      1 <0>         0.1648
      4 C4          2.4067    0.0302   -0.0207 C.ar      1 <0>        -0.1686
      5 C5          1.2022   -0.6833   -0.0130 C.ar      1 <0>        -0.0929
      6 C6          0.0021   -0.0041    0.0020 C.ar      1 <0>         0.0821
      7 F1         -1.1603   -0.6925    0.0094 F         1 <0>        -0.1307
      8 C7          3.6886   -0.6848   -0.0372 C.2       1 <0>         0.4145
      9 O1          4.7300   -0.0628   -0.0442 O.2       1 <0>        -0.4122
     10 C8          3.7109   -2.1916   -0.0454 C.3       1 <0>        -0.1615
     11 S1          5.4299   -2.7708   -0.0656 S.3       1 <0>         0.0030
     12 C9          5.2878   -4.5270   -0.0735 C.ar      1 <0>         0.1914
     13 C10         6.4270   -5.3357   -0.0832 C.ar      1 <0>        -0.0536
     14 C11         6.2620   -6.7301   -0.0888 C.ar      1 <0>         0.3087
     15 N1          7.4957   -7.2690   -0.0978 N.2       1 <0>        -0.4874
     16 H1          8.2283   -4.2475   -0.0872 H         1 <0>         0.4340
     17 C12         8.3912   -6.3210   -0.0981 C.2       1 <0>         0.3124
     18 N2          7.7872   -5.1114   -0.0893 N.pl3     1 <0>        -0.5733
     19 N3          5.0213   -7.2292   -0.0846 N.ar      1 <0>        -0.4832
     20 C13         3.9784   -6.4289   -0.0754 C.ar      1 <0>         0.3161
     21 N4          4.0928   -5.1133   -0.0648 N.ar      1 <0>        -0.5233
     22 O2          3.5409    2.1371   -0.0207 O.3       1 <0>        -0.4762
     23 H2         -0.9612    1.9071    0.0260 H         1 <0>         0.1488
     24 H3          1.1402    3.1787    0.0078 H         1 <0>         0.1501
     25 H4          1.2129   -1.7632   -0.0192 H         1 <0>         0.1517
     26 H5          3.2114   -2.5673    0.8476 H         1 <0>         0.1338
     27 H6          3.1937   -2.5578   -0.9323 H         1 <0>         0.1337
     28 H7          9.4596   -6.4791   -0.1048 H         1 <0>         0.2359
     29 H8          2.9900   -6.8642   -0.0722 H         1 <0>         0.2096
     30 H9          3.8859    2.3365    0.8604 H         1 <0>         0.4006
@<TRIPOS>BOND
     1    1    6 ar
     2    1    2 ar
     3    1   23 1
     4    2    3 ar
     5    2   24 1
     6    3    4 ar
     7    3   22 1
     8    4    5 ar
     9    4    8 1
    10    5    6 ar
    11    5   25 1
    12    6    7 1
    13    8    9 2
    14    8   10 1
    15   10   11 1
    16   10   26 1
    17   10   27 1
    18   11   12 1
    19   12   21 ar
    20   12   13 ar
    21   13   14 ar
    22   13   18 1
    23   14   15 1
    24   14   19 ar
    25   15   17 2
    26   16   18 1
    27   17   28 1
    28   17   18 1
    29   19   20 ar
    30   20   29 1
    31   20   21 ar
    32   22   30 1
