@<TRIPOS>MOLECULE
ZINC63941226
   63    66     0     0     0
SMALL
USER_CHARGES

@<TRIPOS>ATOM
      1 C1          0.3588    1.9451    0.1817 C.3       1 <0>        -0.1531
      2 C2          0.5606    0.4406   -0.0094 C.3       1 <0>        -0.1199
      3 C3          0.8802   -0.2066    1.3396 C.3       1 <0>        -0.0929
      4 C4         -0.3291   -0.0750    2.2676 C.3       1 <0>        -0.1278
      5 C5          0.0531   -0.5440    3.6730 C.3       1 <0>        -0.1688
      6 C6          1.2043   -1.6872    1.1310 C.3       1 <0>         0.1823
      7 H1          1.9850   -1.8175    0.3815 H         1 <0>         0.1133
      8 N1          1.5672   -2.3444    2.4070 N.pl3     1 <0>        -0.6088
      9 N2          0.7269   -3.3609    2.8029 N.2       1 <0>        -0.2318
     10 C7         -0.3124   -3.7316    2.1225 C.2       1 <0>         0.2962
     11 S1         -0.3046   -2.6490    0.7006 S.3       1 <0>        -0.1788
     12 N3         -1.2228   -4.7393    2.4280 N.am      1 <0>        -0.6082
     13 C8         -1.0729   -5.4639    3.5545 C.2       1 <0>         0.5229
     14 O1         -0.1448   -5.2381    4.3019 O.2       1 <0>        -0.4766
     15 C9         -2.0586   -6.5549    3.8853 C.3       1 <0>        -0.1184
     16 H2         -3.0680   -6.1528    3.9716 H         1 <0>         0.1308
     17 C10        -2.0023   -7.6885    2.8352 C.3       1 <0>        -0.1501
     18 C11        -2.2067   -8.9519    3.6420 C.2       1 <0>         0.5261
     19 O2         -2.5067  -10.0315    3.1779 O.2       1 <0>        -0.5143
     20 N4         -2.0069   -8.7039    4.9479 N.am      1 <0>        -0.6225
     21 C12        -1.6476   -7.2986    5.1754 C.3       1 <0>         0.1160
     22 C13        -2.1323   -9.7068    6.0083 C.3       1 <0>         0.1359
     23 C14        -0.7803  -10.3888    6.2277 C.3       1 <0>        -0.1139
     24 C15        -0.9093  -11.4205    7.3186 C.2       1 <0>         0.0671
     25 C16        -1.1387  -12.7443    7.1629 C.ar      1 <0>        -0.1628
     26 C17        -1.3307  -13.5874    5.9768 C.ar      1 <0>        -0.0200
     27 C18        -1.5476  -14.9121    6.1417 C.ar      1 <0>        -0.1139
     28 C19        -1.5941  -15.4986    7.4139 C.ar      1 <0>         0.0593
     29 C20        -1.4269  -14.7895    8.5503 C.ar      1 <0>        -0.2086
     30 C21        -1.1919  -13.3879    8.4949 C.ar      1 <0>         0.3265
     31 N5         -1.0027  -12.4967    9.4376 N.pl3     1 <0>        -0.5873
     32 C22        -0.8019  -11.1863    8.8089 C.3       1 <0>         0.0620
     33 C23        -1.7450  -15.7803    4.9259 C.3       1 <0>        -0.1280
     34 H3          1.2692    2.3850    0.5891 H         1 <0>         0.0553
     35 H4          0.1311    2.4062   -0.7794 H         1 <0>         0.0585
     36 H5         -0.4675    2.1162    0.8716 H         1 <0>         0.0591
     37 H6         -0.3497    0.0008   -0.4168 H         1 <0>         0.0693
     38 H7          1.3870    0.2696   -0.6993 H         1 <0>         0.0660
     39 H8          1.7386    0.2935    1.7882 H         1 <0>         0.0917
     40 H9         -0.6459    0.9672    2.3061 H         1 <0>         0.0689
     41 H10        -1.1460   -0.6894    1.8892 H         1 <0>         0.0771
     42 H11         0.9695   -0.0439    3.9862 H         1 <0>         0.0486
     43 H12        -0.7499   -0.3000    4.3684 H         1 <0>         0.0451
     44 H13         0.2120   -1.6223    3.6654 H         1 <0>         0.0772
     45 H14         2.3417   -2.0783    2.9268 H         1 <0>         0.4406
     46 H15        -1.9650   -4.9199    1.8303 H         1 <0>         0.4298
     47 H16        -2.8010   -7.5702    2.1029 H         1 <0>         0.1213
     48 H17        -1.0304   -7.7038    2.3421 H         1 <0>         0.1165
     49 H18        -0.5740   -7.2056    5.3387 H         1 <0>         0.0976
     50 H19        -2.1956   -6.9021    6.0302 H         1 <0>         0.0940
     51 H20        -2.4485   -9.2217    6.9317 H         1 <0>         0.0928
     52 H21        -2.8724  -10.4524    5.7177 H         1 <0>         0.0956
     53 H22        -0.4640  -10.8740    5.3044 H         1 <0>         0.1125
     54 H23        -0.0402   -9.6433    6.5184 H         1 <0>         0.1158
     55 H24        -1.2995  -13.1563    4.9871 H         1 <0>         0.1609
     56 H25        -1.7713  -16.5614    7.4881 H         1 <0>         0.1605
     57 H26        -1.4721  -15.2891    9.5067 H         1 <0>         0.1613
     58 H27         0.1847  -10.7952    9.0576 H         1 <0>         0.1738
     59 H28        -1.5755  -10.4921    9.1369 H         1 <0>         0.1724
     60 H29        -0.7802  -16.1607    4.5905 H         1 <0>         0.0866
     61 H30        -2.3973  -16.6163    5.1784 H         1 <0>         0.0814
     62 H31        -2.2004  -15.1919    4.1293 H         1 <0>         0.0820
     63 H32        -0.9931  -12.6745   10.3911 H         1 <0>         0.4553
@<TRIPOS>BOND
     1    1    2 1
     2    1   34 1
     3    1   35 1
     4    1   36 1
     5    2    3 1
     6    2   37 1
     7    2   38 1
     8    3    4 1
     9    3    6 1
    10    3   39 1
    11    4    5 1
    12    4   40 1
    13    4   41 1
    14    5   42 1
    15    5   43 1
    16    5   44 1
    17    6    7 1
    18    6   11 1
    19    6    8 1
    20    8    9 1
    21    8   45 1
    22    9   10 2
    23   10   11 1
    24   10   12 1
    25   12   13 am
    26   12   46 1
    27   13   14 2
    28   13   15 1
    29   15   16 1
    30   15   21 1
    31   15   17 1
    32   17   18 1
    33   17   47 1
    34   17   48 1
    35   18   19 2
    36   18   20 am
    37   20   21 1
    38   20   22 1
    39   21   49 1
    40   21   50 1
    41   22   23 1
    42   22   51 1
    43   22   52 1
    44   23   24 1
    45   23   53 1
    46   23   54 1
    47   24   32 1
    48   24   25 2
    49   25   30 ar
    50   25   26 ar
    51   26   27 ar
    52   26   55 1
    53   27   28 ar
    54   27   33 1
    55   28   29 ar
    56   28   56 1
    57   29   30 ar
    58   29   57 1
    59   30   31 2
    60   31   32 1
    61   31   63 1
    62   32   58 1
    63   32   59 1
    64   33   60 1
    65   33   61 1
    66   33   62 1
