@<TRIPOS>MOLECULE
ZINC40660751
   60    64     0     0     0
SMALL
USER_CHARGES

@<TRIPOS>ATOM
      1 C1          2.4711    1.3942    2.5791 C.ar      1 <0>         0.0414
      2 C2          2.4652    2.0771    1.3698 C.ar      1 <0>        -0.1668
      3 C3          2.4794    1.3620    0.1894 C.ar      1 <0>         0.1483
      4 N1          2.4980    0.0424    0.1976 N.ar      1 <0>        -0.5060
      5 C4          2.5038   -0.6447    1.3293 C.ar      1 <0>         0.4435
      6 C5          2.4911    0.0115    2.5561 C.ar      1 <0>        -0.2000
      7 N2          2.5226   -2.0341    1.2915 N.pl3     1 <0>        -0.5900
      8 C6          2.6600   -2.8143    2.5294 C.3       1 <0>         0.0968
      9 C7          1.4852   -3.7957    2.6232 C.3       1 <0>         0.1273
     10 N3          1.3674   -4.5108    1.3447 N.pl3     1 <0>        -0.6700
     11 C8          1.2299   -3.7306    0.1068 C.3       1 <0>         0.1286
     12 C9          2.3992   -2.7493    0.0136 C.3       1 <0>         0.0862
     13 C10         1.3862   -5.8964    1.3069 C.ar      1 <0>         0.4853
     14 C11         0.1968   -6.6187    1.3054 C.ar      1 <0>        -0.1447
     15 C12         0.2694   -8.0078    1.2669 C.ar      1 <0>         0.4851
     16 N4          1.4659   -8.5917    1.2330 N.ar      1 <0>        -0.5099
     17 C13         2.5696   -7.8725    1.2358 C.ar      1 <0>         0.3661
     18 N5          2.5427   -6.5557    1.2661 N.ar      1 <0>        -0.5096
     19 N6         -0.8868   -8.7727    1.2642 N.pl3     1 <0>        -0.6696
     20 C14        -1.5862   -9.0666    0.0055 C.3       1 <0>         0.1261
     21 C15        -1.7340  -10.5872   -0.1294 C.3       1 <0>         0.0979
     22 N7         -2.2820  -11.1190    1.1262 N.pl3     1 <0>        -0.5904
     23 C16        -1.5826  -10.8251    2.3849 C.3       1 <0>         0.0861
     24 C17        -1.4317   -9.3092    2.5192 C.3       1 <0>         0.1287
     25 C18        -3.4413  -11.8860    1.1235 C.ar      1 <0>         0.4434
     26 C19        -4.0117  -12.2692   -0.0863 C.ar      1 <0>        -0.1996
     27 C20        -5.1648  -13.0325   -0.0744 C.ar      1 <0>         0.0414
     28 C21        -5.7113  -13.3886    1.1518 C.ar      1 <0>        -0.1668
     29 C22        -5.0926  -12.9737    2.3138 C.ar      1 <0>         0.1483
     30 N8         -3.9899  -12.2499    2.2722 N.ar      1 <0>        -0.5061
     31 N9         -1.1115   -5.9274    1.3443 N.pl3     1 <0>         0.0454
     32 O1         -1.7037   -5.6960    0.3160 O.2       1 <0>        -0.1305
     33 O2         -1.5879   -5.5943    2.4044 O.3       1 <0>        -0.1251
     34 H1          2.4647    1.9308    3.5163 H         1 <0>         0.1765
     35 H2          2.4493    3.1569    1.3532 H         1 <0>         0.1831
     36 H3          2.4749    1.8891   -0.7533 H         1 <0>         0.2082
     37 H4          2.4966   -0.5512    3.4780 H         1 <0>         0.1787
     38 H5          3.5987   -3.3680    2.5104 H         1 <0>         0.1036
     39 H6          2.6456   -2.1432    3.3882 H         1 <0>         0.1143
     40 H7          1.6682   -4.5096    3.4262 H         1 <0>         0.1015
     41 H8          0.5647   -3.2465    2.8213 H         1 <0>         0.0847
     42 H9          1.2444   -4.4017   -0.7520 H         1 <0>         0.1005
     43 H10         0.2913   -3.1768    0.1257 H         1 <0>         0.0814
     44 H11         2.2125   -2.0354   -0.7887 H         1 <0>         0.0900
     45 H12         3.3188   -3.2984   -0.1886 H         1 <0>         0.1071
     46 H13         3.5242   -8.3769    1.2081 H         1 <0>         0.2256
     47 H14        -2.5726   -8.6029    0.0181 H         1 <0>         0.0841
     48 H15        -1.0079   -8.6794   -0.8334 H         1 <0>         0.1014
     49 H16        -2.4123  -10.8174   -0.9511 H         1 <0>         0.1146
     50 H17        -0.7584  -11.0340   -0.3211 H         1 <0>         0.1028
     51 H18        -2.1609  -11.2123    3.2238 H         1 <0>         0.0893
     52 H19        -0.5962  -11.2888    2.3723 H         1 <0>         0.1092
     53 H20        -0.7513   -9.0821    3.3400 H         1 <0>         0.1009
     54 H21        -2.4068   -8.8631    2.7149 H         1 <0>         0.0810
     55 H22        -3.5602  -11.9742   -1.0221 H         1 <0>         0.1786
     56 H23        -5.6301  -13.3444   -0.9977 H         1 <0>         0.1765
     57 H24        -6.6113  -13.9839    1.1956 H         1 <0>         0.1831
     58 H25        -5.5142  -13.2484    3.2694 H         1 <0>         0.2082
     59 H26         2.5074   -0.4359   -0.6462 H         1 <0>         0.4374
     60 H27        -3.5731  -11.9746    3.1037 H         1 <0>         0.4371
@<TRIPOS>BOND
     1    1    6 ar
     2    1    2 ar
     3    1   34 1
     4    2    3 ar
     5    2   35 1
     6    3    4 ar
     7    3   36 1
     8    4    5 ar
     9    4   59 1
    10    5    6 ar
    11    5    7 1
    12    6   37 1
    13    7   12 1
    14    7    8 1
    15    8    9 1
    16    8   38 1
    17    8   39 1
    18    9   10 1
    19    9   40 1
    20    9   41 1
    21   10   11 1
    22   10   13 1
    23   11   12 1
    24   11   42 1
    25   11   43 1
    26   12   44 1
    27   12   45 1
    28   13   18 ar
    29   13   14 ar
    30   14   15 ar
    31   14   31 1
    32   15   16 ar
    33   15   19 1
    34   16   17 ar
    35   17   18 ar
    36   17   46 1
    37   19   24 1
    38   19   20 1
    39   20   21 1
    40   20   47 1
    41   20   48 1
    42   21   22 1
    43   21   49 1
    44   21   50 1
    45   22   23 1
    46   22   25 1
    47   23   24 1
    48   23   51 1
    49   23   52 1
    50   24   53 1
    51   24   54 1
    52   25   30 ar
    53   25   26 ar
    54   26   27 ar
    55   26   55 1
    56   27   28 ar
    57   27   56 1
    58   28   29 ar
    59   28   57 1
    60   29   30 ar
    61   29   58 1
    62   30   60 1
    63   31   32 2
    64   31   33 1
