@<TRIPOS>MOLECULE
ZINC65739579
   51    54     0     0     0
SMALL
USER_CHARGES

@<TRIPOS>ATOM
      1 C1         -0.0168    1.3896    0.0097 C.ar      1 <0>        -0.0921
      2 C2          1.1691    2.0940    0.0021 C.ar      1 <0>        -0.1099
      3 C3          2.3804    1.4164   -0.0135 C.ar      1 <0>         0.1220
      4 C4          2.4025    0.0286   -0.0216 C.ar      1 <0>        -0.1268
      5 C5          1.2201   -0.6816   -0.0137 C.ar      1 <0>        -0.0745
      6 C6          0.0021   -0.0041    0.0020 C.ar      1 <0>        -0.0421
      7 C7         -1.2714   -0.7647    0.0106 C.2       1 <0>        -0.2268
      8 C8         -2.1312   -0.6984   -1.0395 C.2       1 <0>         0.1179
      9 O1         -3.2792   -1.3783   -1.0768 O.3       1 <0>        -0.2186
     10 C9         -3.8134   -1.9293    0.0301 C.ar      1 <0>         0.1753
     11 C10        -5.1368   -2.3510    0.0428 C.ar      1 <0>        -0.1784
     12 C11        -5.6660   -2.9233    1.1868 C.ar      1 <0>         0.1985
     13 C12        -4.8838   -3.0822    2.3291 C.ar      1 <0>        -0.2065
     14 C13        -3.5815   -2.6701    2.3350 C.ar      1 <0>         0.0086
     15 C14        -3.0361   -2.0875    1.1913 C.ar      1 <0>        -0.2506
     16 C15        -1.6365   -1.6187    1.1568 C.2       1 <0>         0.4301
     17 O2         -0.8326   -1.9150    2.0240 O.2       1 <0>        -0.4462
     18 O3         -6.9599   -3.3335    1.1962 O.3       1 <0>        -0.2902
     19 C16        -7.4470   -3.9162    2.4066 C.3       1 <0>         0.2182
     20 H1         -6.7554   -4.6889    2.7421 H         1 <0>         0.0689
     21 C17        -8.8238   -4.5371    2.1564 C.3       1 <0>         0.1049
     22 H2         -9.5053   -3.7732    1.7820 H         1 <0>         0.0919
     23 C18        -9.3653   -5.1062    3.4714 C.3       1 <0>         0.1277
     24 H3         -8.7102   -5.9043    3.8204 H         1 <0>         0.0754
     25 C19        -9.4132   -3.9882    4.5174 C.3       1 <0>         0.0627
     26 H4         -9.7452   -4.3965    5.4720 H         1 <0>         0.0787
     27 C20        -8.0137   -3.3886    4.6765 C.3       1 <0>        -0.0047
     28 H5         -7.3294   -4.1544    5.0419 H         1 <0>         0.0647
     29 O4         -7.5568   -2.9060    3.4114 O.3       1 <0>        -0.3452
     30 C21        -8.0642   -2.2487    5.6610 C.2       1 <0>         0.5051
     31 O5         -8.3427   -2.4633    6.8284 O.co2     1 <0>        -0.6850
     32 O6         -7.8266   -1.1118    5.2900 O.co2     1 <0>        -0.6536
     33 O7        -10.3234   -2.9729    4.0899 O.3       1 <0>        -0.5485
     34 O8        -10.6806   -5.6243    3.2624 O.3       1 <0>        -0.5431
     35 O9         -8.7067   -5.5860    1.1930 O.3       1 <0>        -0.5527
     36 O10         3.5472    2.1133   -0.0214 O.3       1 <0>        -0.7149
     37 S1          4.0925    2.4233    1.3654 S.o2      1 <0>         2.7543
     38 O11         5.1082    3.4514    1.1998 O.2       1 <0>        -1.0646
     39 O12         2.9712    2.8911    2.1653 O.2       1 <0>        -1.0751
     40 O13         4.6521    1.1855    1.8856 O.3       1 <0>        -1.0769
     41 H6         -0.9590    1.9174    0.0260 H         1 <0>         0.1315
     42 H7          1.1551    3.1739    0.0081 H         1 <0>         0.1371
     43 H8          3.3466   -0.4958   -0.0346 H         1 <0>         0.1400
     44 H9          1.2380   -1.7614   -0.0204 H         1 <0>         0.1299
     45 H10        -1.8752   -0.0690   -1.8790 H         1 <0>         0.1994
     46 H11        -5.7514   -2.2323   -0.8373 H         1 <0>         0.1500
     47 H12        -5.3090   -3.5334    3.2135 H         1 <0>         0.1412
     48 H13        -2.9771   -2.7942    3.2214 H         1 <0>         0.1452
     49 H14       -10.4037   -2.2319    4.7060 H         1 <0>         0.3870
     50 H15       -11.0854   -6.0015    4.0555 H         1 <0>         0.3781
     51 H16        -8.3647   -5.2966    0.3360 H         1 <0>         0.3829
@<TRIPOS>BOND
     1    1    6 ar
     2    1    2 ar
     3    1   41 1
     4    2    3 ar
     5    2   42 1
     6    3    4 ar
     7    3   36 1
     8    4    5 ar
     9    4   43 1
    10    5    6 ar
    11    5   44 1
    12    6    7 1
    13    7   16 1
    14    7    8 2
    15    8    9 1
    16    8   45 1
    17    9   10 1
    18   10   15 ar
    19   10   11 ar
    20   11   12 ar
    21   11   46 1
    22   12   13 ar
    23   12   18 1
    24   13   14 ar
    25   13   47 1
    26   14   15 ar
    27   14   48 1
    28   15   16 1
    29   16   17 2
    30   18   19 1
    31   19   20 1
    32   19   29 1
    33   19   21 1
    34   21   22 1
    35   21   23 1
    36   21   35 1
    37   23   24 1
    38   23   25 1
    39   23   34 1
    40   25   26 1
    41   25   27 1
    42   25   33 1
    43   27   28 1
    44   27   29 1
    45   27   30 1
    46   30   31 2
    47   30   32 1
    48   33   49 1
    49   34   50 1
    50   35   51 1
    51   36   37 1
    52   37   38 2
    53   37   39 2
    54   37   40 1
