@<TRIPOS>MOLECULE
ZINC11591411
   49    52     0     0     0
SMALL
USER_CHARGES
N-(2,6-dimethylphenyl)-2-(dioxoBLAHyl)-acetamide
@<TRIPOS>ATOM
      1 C1          0.8788   -2.0062   -3.7282 C.3       1 <0>        -0.1064
      2 C2          1.4187   -3.3779   -4.0414 C.ar      1 <0>        -0.0677
      3 C3          1.4663   -3.8201   -5.3489 C.ar      1 <0>        -0.1149
      4 C4          1.9559   -5.0810   -5.6365 C.ar      1 <0>        -0.1138
      5 C5          2.4054   -5.9004   -4.6174 C.ar      1 <0>        -0.1154
      6 C6          2.3663   -5.4617   -3.3084 C.ar      1 <0>        -0.0909
      7 C7          1.8748   -4.1962   -3.0162 C.ar      1 <0>         0.1326
      8 N1          1.8338   -3.7487   -1.6910 N.am      1 <0>        -0.6690
      9 C8          2.3800   -2.5609   -1.3637 C.2       1 <0>         0.5004
     10 O1          2.9645   -1.9100   -2.2038 O.2       1 <0>        -0.5035
     11 C9          2.2644   -2.0413    0.0462 C.3       1 <0>         0.0997
     12 N2          2.9344   -0.7422    0.1444 N.am      1 <0>        -0.5631
     13 C10         4.2360   -0.5824    0.4620 C.2       1 <0>         0.5449
     14 O2          5.0427   -1.4522    0.7117 O.2       1 <0>        -0.4455
     15 C11         4.4758    0.9094    0.4415 C.3       1 <0>         0.1754
     16 C12         4.9095    1.3978    1.8204 C.3       1 <0>        -0.1586
     17 C13         5.3903    2.8495    1.6886 C.3       1 <0>         0.0674
     18 O3          6.5426    2.8697    0.8452 O.3       1 <0>        -0.3089
     19 C14         6.4761    2.2176   -0.3443 C.ar      1 <0>         0.1567
     20 C15         5.5055    1.2609   -0.5953 C.ar      1 <0>        -0.1788
     21 C16         5.4775    0.6150   -1.8194 C.ar      1 <0>        -0.0591
     22 C17         6.4098    0.9212   -2.7918 C.ar      1 <0>        -0.1483
     23 C18         7.3768    1.8779   -2.5451 C.ar      1 <0>        -0.0659
     24 C19         7.4111    2.5248   -1.3265 C.ar      1 <0>        -0.1517
     25 N3          3.1699    1.4764    0.0827 N.am      1 <0>        -0.7126
     26 C20         2.3315    0.4335   -0.0707 C.2       1 <0>         0.7109
     27 O4          1.1593    0.5471   -0.3711 O.2       1 <0>        -0.5315
     28 C21         2.8568   -6.3552   -2.1984 C.3       1 <0>        -0.1156
     29 H1          1.6584   -1.2625   -3.8931 H         1 <0>         0.0814
     30 H2          0.0299   -1.7929   -4.3777 H         1 <0>         0.0627
     31 H3          0.5576   -1.9712   -2.6871 H         1 <0>         0.0566
     32 H4          1.1163   -3.1824   -6.1471 H         1 <0>         0.1256
     33 H5          1.9876   -5.4264   -6.6593 H         1 <0>         0.1253
     34 H6          2.7879   -6.8844   -4.8453 H         1 <0>         0.1264
     35 H7          1.4122   -4.2934   -1.0080 H         1 <0>         0.4108
     36 H8          2.7346   -2.7455    0.7326 H         1 <0>         0.1300
     37 H9          1.2120   -1.9279    0.3065 H         1 <0>         0.1334
     38 H10         4.0656    1.3514    2.5087 H         1 <0>         0.1021
     39 H11         5.7223    0.7739    2.1922 H         1 <0>         0.1065
     40 H12         4.6016    3.4579    1.2459 H         1 <0>         0.0685
     41 H13         5.6462    3.2414    2.6730 H         1 <0>         0.1227
     42 H14         4.7230   -0.1325   -2.0151 H         1 <0>         0.1302
     43 H15         6.3829    0.4136   -3.7447 H         1 <0>         0.1292
     44 H16         8.1047    2.1191   -3.3056 H         1 <0>         0.1350
     45 H17         8.1668    3.2723   -1.1351 H         1 <0>         0.1373
     46 H18         2.9546    2.4159   -0.0264 H         1 <0>         0.4412
     47 H19         2.0302   -6.9614   -1.8277 H         1 <0>         0.0726
     48 H20         3.6439   -7.0070   -2.5776 H         1 <0>         0.0713
     49 H21         3.2512   -5.7435   -1.3870 H         1 <0>         0.0645
@<TRIPOS>BOND
     1    1    2 1
     2    1   29 1
     3    1   30 1
     4    1   31 1
     5    2    7 ar
     6    2    3 ar
     7    3    4 ar
     8    3   32 1
     9    4    5 ar
    10    4   33 1
    11    5    6 ar
    12    5   34 1
    13    6    7 ar
    14    6   28 1
    15    7    8 1
    16    8    9 am
    17    8   35 1
    18    9   10 2
    19    9   11 1
    20   11   12 1
    21   11   36 1
    22   11   37 1
    23   12   26 am
    24   12   13 am
    25   13   14 2
    26   13   15 1
    27   15   20 1
    28   15   16 1
    29   15   25 1
    30   16   17 1
    31   16   38 1
    32   16   39 1
    33   17   18 1
    34   17   40 1
    35   17   41 1
    36   18   19 1
    37   19   24 ar
    38   19   20 ar
    39   20   21 ar
    40   21   22 ar
    41   21   42 1
    42   22   23 ar
    43   22   43 1
    44   23   24 ar
    45   23   44 1
    46   24   45 1
    47   25   26 am
    48   25   46 1
    49   26   27 2
    50   28   47 1
    51   28   48 1
    52   28   49 1
