@<TRIPOS>MOLECULE
ZINC54531067
   39    41     0     0     0
SMALL
USER_CHARGES

@<TRIPOS>ATOM
      1 C1         -0.0184    1.5028    0.0103 C.3       1 <0>        -0.0999
      2 C2          0.0021   -0.0041    0.0020 C.ar      1 <0>        -0.1645
      3 C3          0.0057   -0.6797   -1.1852 C.ar      1 <0>        -0.0410
      4 C4          0.0246   -2.0791   -1.1918 C.ar      1 <0>        -0.1611
      5 C5          0.0399   -2.7812    0.0192 C.ar      1 <0>        -0.0480
      6 C6          0.0362   -2.0989    1.2021 C.ar      1 <0>        -0.2015
      7 C7          0.0230   -0.7059    1.2047 C.ar      1 <0>         0.1798
      8 N1          0.0250   -0.0153    2.4099 N.pl3     1 <0>        -0.7419
      9 C8          0.0471   -0.7518    3.6762 C.3       1 <0>         0.1513
     10 H1          0.6341   -1.6647    3.5757 H         1 <0>         0.1141
     11 C9         -1.3884   -1.0803    4.1352 C.3       1 <0>        -0.1628
     12 C10        -1.3332   -0.9916    5.6693 C.3       1 <0>        -0.0090
     13 N2         -0.1341   -0.2257    6.0314 N.4       1 <0>        -0.3858
     14 C11         0.6119    0.1314    4.8042 C.3       1 <0>         0.0155
     15 H2          1.6867   -0.0041    4.9250 H         1 <0>         0.1577
     16 C12         0.2272    1.6030    4.5125 C.3       1 <0>        -0.1438
     17 C13         0.0851    2.1898    5.9406 C.3       1 <0>        -0.1377
     18 C14        -0.5076    1.0074    6.7430 C.3       1 <0>        -0.0102
     19 C15         0.0281   -2.8105   -2.4685 C.2       1 <0>         0.5169
     20 O1          0.0143   -2.1954   -3.5261 O.co2     1 <0>        -0.6864
     21 O2          0.0447   -4.0339   -2.4726 O.co2     1 <0>        -0.6882
     22 H3          1.0042    1.8801    0.0026 H         1 <0>         0.0619
     23 H4         -0.5455    1.8639   -0.8728 H         1 <0>         0.0696
     24 H5         -0.5286    1.8543    0.9071 H         1 <0>         0.0461
     25 H6         -0.0065   -0.1346   -2.1175 H         1 <0>         0.1300
     26 H7          0.0542   -3.8611    0.0179 H         1 <0>         0.1278
     27 H8          0.0480   -2.6399    2.1368 H         1 <0>         0.1085
     28 H9          0.0119    0.9546    2.4132 H         1 <0>         0.4003
     29 H10        -2.0917   -0.3490    3.7371 H         1 <0>         0.1019
     30 H11        -1.6668   -2.0866    3.8222 H         1 <0>         0.1158
     31 H12        -2.2225   -0.4833    6.0420 H         1 <0>         0.1305
     32 H13        -1.2740   -1.9933    6.0951 H         1 <0>         0.1322
     33 H14         1.0187    2.1100    3.9605 H         1 <0>         0.1184
     34 H15        -0.7184    1.6584    3.9732 H         1 <0>         0.1020
     35 H16         1.0581    2.4809    6.3364 H         1 <0>         0.1003
     36 H17        -0.6022    3.0358    5.9432 H         1 <0>         0.1117
     37 H18        -1.5931    1.0926    6.7933 H         1 <0>         0.1305
     38 H19        -0.0867    0.9976    7.7485 H         1 <0>         0.1317
     39 H20         0.4613   -0.7885    6.6202 H         1 <0>         0.4271
@<TRIPOS>BOND
     1    1    2 1
     2    1   22 1
     3    1   23 1
     4    1   24 1
     5    2    7 ar
     6    2    3 ar
     7    3    4 ar
     8    3   25 1
     9    4    5 ar
    10    4   19 1
    11    5    6 ar
    12    5   26 1
    13    6    7 ar
    14    6   27 1
    15    7    8 1
    16    8    9 1
    17    8   28 1
    18    9   10 1
    19    9   14 1
    20    9   11 1
    21   11   12 1
    22   11   29 1
    23   11   30 1
    24   12   13 1
    25   12   31 1
    26   12   32 1
    27   13   18 1
    28   13   14 1
    29   13   39 1
    30   14   15 1
    31   14   16 1
    32   16   17 1
    33   16   33 1
    34   16   34 1
    35   17   18 1
    36   17   35 1
    37   17   36 1
    38   18   37 1
    39   18   38 1
    40   19   20 2
    41   19   21 1
