@<TRIPOS>MOLECULE
ZINC06621498
   48    51     0     0     0
SMALL
USER_CHARGES

@<TRIPOS>ATOM
      1 C1         -0.7905    1.4968    0.0828 C.3       1 <0>         0.0223
      2 N1         -0.5542    0.0476    0.0396 N.3       1 <0>        -0.5318
      3 C2          0.0384   -0.3528   -1.2493 C.3       1 <0>         0.0774
      4 C3          0.0850   -1.8607   -1.2803 C.2       1 <0>        -0.1251
      5 C4          0.2788   -2.5373   -0.1637 C.2       1 <0>        -0.0494
      6 C5          0.5138   -1.8742    1.1634 C.3       1 <0>        -0.0338
      7 H1          1.5527   -2.0504    1.4423 H         1 <0>         0.0888
      8 C6          0.3074   -0.3773    1.1462 C.3       1 <0>         0.0585
      9 C7         -0.3691   -2.5662    2.2031 C.3       1 <0>        -0.0155
     10 H2         -1.4110   -2.5198    1.8863 H         1 <0>         0.1352
     11 C8          0.0640   -4.0275    2.3265 C.3       1 <0>         0.2115
     12 C9          0.1530   -4.6975    0.9888 C.2       1 <0>         0.2416
     13 C10         0.2659   -4.0214   -0.1832 C.2       1 <0>        -0.1224
     14 C11         0.3708   -4.7312   -1.4225 C.1       1 <0>         0.2622
     15 N2          0.4540   -5.2943   -2.4056 N.1       1 <0>        -0.4216
     16 N3          0.1190   -6.0630    0.9465 N.pl3     1 <0>        -0.8397
     17 C12         1.3822   -4.0833    2.9793 C.1       1 <0>         0.1955
     18 N4          2.3995   -4.1264    3.4830 N.1       1 <0>        -0.3478
     19 C13        -0.9123   -4.7482    3.1597 C.1       1 <0>         0.1939
     20 N5         -1.6657   -5.3043    3.8027 N.1       1 <0>        -0.3490
     21 C14        -0.2152   -1.8775    3.5347 C.ar      1 <0>        -0.0526
     22 C15         1.0428   -1.5279    3.9886 C.ar      1 <0>        -0.1317
     23 C16         1.1896   -0.8942    5.2130 C.ar      1 <0>         0.0838
     24 C17         0.0676   -0.6098    5.9846 C.ar      1 <0>         0.0047
     25 C18        -1.1948   -0.9627    5.5242 C.ar      1 <0>         0.1569
     26 C19        -1.3328   -1.5918    4.2960 C.ar      1 <0>        -0.1791
     27 O1         -2.2947   -0.6868    6.2749 O.3       1 <0>        -0.3051
     28 C20        -3.5605   -1.0780    5.7394 C.3       1 <0>         0.0224
     29 O2          0.4724    0.0095    7.1329 O.3       1 <0>        -0.2965
     30 C21         1.8816   -0.2656    7.2411 C.3       1 <0>         0.2112
     31 O3          2.2987   -0.4534    5.8758 O.3       1 <0>        -0.3007
     32 H3          0.1612    2.0226    0.0064 H         1 <0>         0.0286
     33 H4         -1.4327    1.7852   -0.7494 H         1 <0>         0.0730
     34 H5         -1.2754    1.7580    1.0234 H         1 <0>         0.0714
     35 H6         -0.5775    0.0153   -2.0698 H         1 <0>         0.0914
     36 H7          1.0476    0.0503   -1.3335 H         1 <0>         0.0544
     37 H8         -0.0404   -2.3860   -2.2156 H         1 <0>         0.1197
     38 H9          1.2762    0.1128    1.0490 H         1 <0>         0.0462
     39 H10        -0.1491   -0.0720    2.0878 H         1 <0>         0.0918
     40 H11         0.0391   -6.5719    1.7684 H         1 <0>         0.4055
     41 H12         0.1747   -6.5234    0.0945 H         1 <0>         0.4144
     42 H13         1.9131   -1.7493    3.3886 H         1 <0>         0.1389
     43 H14        -2.3143   -1.8628    3.9360 H         1 <0>         0.1496
     44 H15        -4.3514   -0.8001    6.4361 H         1 <0>         0.1058
     45 H16        -3.7229   -0.5751    4.7861 H         1 <0>         0.0624
     46 H17        -3.5728   -2.1573    5.5875 H         1 <0>         0.0590
     47 H18         2.4038    0.5803    7.6882 H         1 <0>         0.1365
     48 H19         2.0515   -1.1723    7.8218 H         1 <0>         0.0869
@<TRIPOS>BOND
     1    1    2 1
     2    1   32 1
     3    1   33 1
     4    1   34 1
     5    2    8 1
     6    2    3 1
     7    3    4 1
     8    3   35 1
     9    3   36 1
    10    4    5 2
    11    4   37 1
    12    5   13 1
    13    5    6 1
    14    6    7 1
    15    6    8 1
    16    6    9 1
    17    8   38 1
    18    8   39 1
    19    9   10 1
    20    9   11 1
    21    9   21 1
    22   11   12 1
    23   11   17 1
    24   11   19 1
    25   12   13 2
    26   12   16 1
    27   13   14 1
    28   14   15 3
    29   16   40 1
    30   16   41 1
    31   17   18 3
    32   19   20 3
    33   21   26 ar
    34   21   22 ar
    35   22   23 ar
    36   22   42 1
    37   23   31 1
    38   23   24 ar
    39   24   25 ar
    40   24   29 1
    41   25   26 ar
    42   25   27 1
    43   26   43 1
    44   27   28 1
    45   28   44 1
    46   28   45 1
    47   28   46 1
    48   29   30 1
    49   30   31 1
    50   30   47 1
    51   30   48 1
