@<TRIPOS>MOLECULE
ZINC05834806
   44    45     0     0     0
SMALL
USER_CHARGES
ethyl methyl 5-hydroxy-7-methyl-6-ureido-6-azabicyclo[3.3.0]oct-7-ene-1,8-dicarboxylate
@<TRIPOS>ATOM
      1 C1          1.0140    9.7724    1.2598 C.3       1 <0>        -0.1497
      2 C2          0.8596    8.3597    1.8268 C.3       1 <0>         0.0616
      3 O1         -0.1316    7.6334    1.0533 O.3       1 <0>        -0.3326
      4 C3         -0.3869    6.3688    1.4240 C.2       1 <0>         0.4780
      5 O2          0.1984    5.8849    2.3637 O.2       1 <0>        -0.4697
      6 C4         -1.4036    5.5527    0.6681 C.3       1 <0>         0.0200
      7 C5         -2.8148    6.1679    0.7504 C.3       1 <0>        -0.1031
      8 C6         -3.5325    5.3341    1.8401 C.3       1 <0>        -0.1223
      9 C7         -3.0077    3.9016    1.5747 C.3       1 <0>        -0.1511
     10 C8         -1.5326    4.1022    1.1922 C.3       1 <0>         0.3514
     11 N1         -1.2096    3.2705    0.0256 N.pl3     1 <0>        -0.4160
     12 C9         -0.9383    4.0580   -1.0446 C.2       1 <0>         0.2775
     13 C10        -1.0215    5.3726   -0.7844 C.2       1 <0>        -0.3143
     14 C11        -0.7905    6.4125   -1.7110 C.2       1 <0>         0.5423
     15 O3         -0.4870    6.1479   -2.8595 O.2       1 <0>        -0.5282
     16 O4         -0.9064    7.7001   -1.3231 O.3       1 <0>        -0.3297
     17 C12        -0.6585    8.7006   -2.3129 C.3       1 <0>         0.0383
     18 C13        -0.5775    3.5084   -2.4006 C.3       1 <0>        -0.1200
     19 N2         -1.1906    1.8696    0.0179 N.am      1 <0>        -0.5172
     20 C14        -0.0144    1.2117    0.0087 C.2       1 <0>         0.7156
     21 O5          0.0021   -0.0041    0.0020 O.2       1 <0>        -0.5670
     22 N3          1.1435    1.9014    0.0014 N.am      1 <0>        -0.8537
     23 O6         -0.6500    3.8505    2.2875 O.3       1 <0>        -0.4982
     24 H1          1.7580   10.3176    1.8405 H         1 <0>         0.0775
     25 H2          1.3363    9.7134    0.2202 H         1 <0>         0.0657
     26 H3          0.0577   10.2925    1.3148 H         1 <0>         0.0673
     27 H4          0.5373    8.4187    2.8664 H         1 <0>         0.0677
     28 H5          1.8159    7.8396    1.7718 H         1 <0>         0.0657
     29 H6         -2.7574    7.2150    1.0478 H         1 <0>         0.0921
     30 H7         -3.3288    6.0719   -0.2060 H         1 <0>         0.0901
     31 H8         -3.2463    5.6720    2.8361 H         1 <0>         0.0788
     32 H9         -4.6139    5.3793    1.7116 H         1 <0>         0.0866
     33 H10        -3.0903    3.2926    2.4750 H         1 <0>         0.0891
     34 H11        -3.5543    3.4420    0.7512 H         1 <0>         0.0883
     35 H12         0.3604    8.5977   -2.6862 H         1 <0>         0.0558
     36 H13        -1.3615    8.5786   -3.1369 H         1 <0>         0.0565
     37 H14        -0.7852    9.6887   -1.8704 H         1 <0>         0.0983
     38 H15        -0.5752    2.4191   -2.3624 H         1 <0>         0.0704
     39 H16        -1.3092    3.8446   -3.1353 H         1 <0>         0.1051
     40 H17         0.4128    3.8641   -2.6851 H         1 <0>         0.1020
     41 H18        -2.0240    1.3733    0.0191 H         1 <0>         0.4348
     42 H19         1.9900    1.4279   -0.0093 H         1 <0>         0.4211
     43 H20         1.1303    2.8713    0.0067 H         1 <0>         0.4014
     44 H21        -0.6773    2.9406    2.6136 H         1 <0>         0.3737
@<TRIPOS>BOND
     1    1    2 1
     2    1   24 1
     3    1   25 1
     4    1   26 1
     5    2    3 1
     6    2   27 1
     7    2   28 1
     8    3    4 1
     9    4    5 2
    10    4    6 1
    11    6   10 1
    12    6   13 1
    13    6    7 1
    14    7    8 1
    15    7   29 1
    16    7   30 1
    17    8    9 1
    18    8   31 1
    19    8   32 1
    20    9   10 1
    21    9   33 1
    22    9   34 1
    23   10   11 1
    24   10   23 1
    25   11   12 1
    26   11   19 1
    27   12   13 2
    28   12   18 1
    29   13   14 1
    30   14   15 2
    31   14   16 1
    32   16   17 1
    33   17   35 1
    34   17   36 1
    35   17   37 1
    36   18   38 1
    37   18   39 1
    38   18   40 1
    39   19   20 am
    40   19   41 1
    41   20   21 2
    42   20   22 am
    43   22   42 1
    44   22   43 1
    45   23   44 1
