@<TRIPOS>MOLECULE
ZINC12315154
   61    63     0     0     0
SMALL
USER_CHARGES
(3R)-4-[(2,3-dimethoxyphenyl)methyl]-3-[2-(4-methoxy-1-piperidyl)-2-oxo-ethyl]piperazin-2-one
@<TRIPOS>ATOM
      1 C1         -1.2986   12.2945    1.9383 C.3       1 <0>         0.0192
      2 O1         -0.0096   11.6830    1.8578 O.3       1 <0>        -0.2998
      3 C2          0.0254   10.3271    1.7589 C.ar      1 <0>         0.1239
      4 C3         -1.1550    9.6016    1.7399 C.ar      1 <0>        -0.1670
      5 C4         -1.1177    8.2233    1.6393 C.ar      1 <0>        -0.0715
      6 C5          0.0957    7.5658    1.5571 C.ar      1 <0>        -0.1162
      7 C6          1.2770    8.2836    1.5751 C.ar      1 <0>        -0.1392
      8 C7          1.2468    9.6648    1.6815 C.ar      1 <0>         0.0780
      9 O2          2.4081   10.3721    1.7045 O.3       1 <0>        -0.3317
     10 C8          2.9282   10.8065    0.4463 C.3       1 <0>         0.0273
     11 C9          2.5978    7.5635    1.4854 C.3       1 <0>         0.0471
     12 C10         3.4068    8.5600    3.5413 C.3       1 <0>        -0.0180
     13 C11         3.6307    8.2535    5.0233 C.3       1 <0>         0.0860
     14 N1          4.5873    7.1601    5.1692 N.am      1 <0>        -0.7096
     15 C12         4.8896    6.3210    4.1729 C.2       1 <0>         0.5228
     16 O3          5.6723    5.4202    4.3893 O.2       1 <0>        -0.4989
     17 C13         4.2998    6.4472    2.7967 C.3       1 <0>         0.0397
     18 H1          5.0366    6.8899    2.1265 H         1 <0>         0.1752
     19 C14         3.9130    5.0597    2.2808 C.3       1 <0>        -0.1682
     20 C15         2.8304    4.4822    3.1557 C.2       1 <0>         0.5119
     21 O4          2.4528    5.0907    4.1345 O.2       1 <0>        -0.5516
     22 N2          2.2819    3.2896    2.8505 N.am      1 <0>        -0.5881
     23 C16         1.2256    2.7136    3.6938 C.3       1 <0>         0.1099
     24 C17         1.6398    1.2970    4.1042 C.3       1 <0>        -0.1357
     25 C18         1.9585    0.4796    2.8502 C.3       1 <0>         0.0880
     26 C19         3.1258    1.1262    2.1009 C.3       1 <0>        -0.1624
     27 C20         2.7285    2.5409    1.6678 C.3       1 <0>         0.0997
     28 O5          2.3142   -0.8520    3.2276 O.3       1 <0>        -0.3804
     29 C21         1.9830   -1.8410    2.2508 C.3       1 <0>         0.0282
     30 H2         -1.8226   11.9230    2.8190 H         1 <0>         0.0631
     31 H3         -1.1837   13.3759    2.0132 H         1 <0>         0.1120
     32 H4         -1.8728   12.0511    1.0443 H         1 <0>         0.0625
     33 H5         -2.1042   10.1128    1.8040 H         1 <0>         0.1466
     34 H6         -2.0384    7.6590    1.6246 H         1 <0>         0.1435
     35 H7          0.1207    6.4889    1.4784 H         1 <0>         0.1361
     36 H8          3.8548   11.3576    0.6070 H         1 <0>         0.1054
     37 H9          3.1258    9.9395   -0.1840 H         1 <0>         0.0475
     38 H10         2.2008   11.4537   -0.0436 H         1 <0>         0.0595
     39 H11         3.3124    8.1816    0.9420 H         1 <0>         0.1399
     40 H12         2.4613    6.6184    0.9597 H         1 <0>         0.1353
     41 H13         2.5688    9.2486    3.4329 H         1 <0>         0.1590
     42 H14         4.3063    9.0099    3.1211 H         1 <0>         0.1402
     43 H15         2.6832    7.9685    5.4807 H         1 <0>         0.0968
     44 H16         4.0182    9.1420    5.5218 H         1 <0>         0.1260
     45 H17         5.0232    7.0371    6.0269 H         1 <0>         0.4248
     46 H18         4.7858    4.4071    2.3041 H         1 <0>         0.1571
     47 H19         3.5478    5.1415    1.2570 H         1 <0>         0.1304
     48 H20         0.2917    2.6733    3.1332 H         1 <0>         0.0816
     49 H21         1.0908    3.3274    4.5845 H         1 <0>         0.1050
     50 H22         0.8238    0.8230    4.6497 H         1 <0>         0.0918
     51 H23         2.5233    1.3463    4.7407 H         1 <0>         0.0798
     52 H24         1.0823    0.4517    2.2025 H         1 <0>         0.0658
     53 H25         3.9953    1.1771    2.7562 H         1 <0>         0.0821
     54 H26         3.3676    0.5306    1.2205 H         1 <0>         0.0874
     55 H27         1.9172    2.4865    0.9419 H         1 <0>         0.0866
     56 H28         3.5879    3.0413    1.2216 H         1 <0>         0.0927
     57 H29         2.2848   -2.8240    2.6122 H         1 <0>         0.0916
     58 H30         0.9072   -1.8328    2.0757 H         1 <0>         0.0449
     59 H31         2.5044   -1.6206    1.3193 H         1 <0>         0.0431
     60 N3          3.0917    7.2913    2.8545 N.4       1 <0>        -0.3931
     61 H32         2.3617    6.7971    3.3809 H         1 <0>         0.4362
@<TRIPOS>BOND
     1    1    2 1
     2    1   30 1
     3    1   31 1
     4    1   32 1
     5    2    3 1
     6    3    8 ar
     7    3    4 ar
     8    4    5 ar
     9    4   33 1
    10    5    6 ar
    11    5   34 1
    12    6    7 ar
    13    6   35 1
    14    7    8 ar
    15    7   11 1
    16    8    9 1
    17    9   10 1
    18   10   36 1
    19   10   37 1
    20   10   38 1
    21   11   39 1
    22   11   40 1
    23   11   60 1
    24   12   13 1
    25   12   41 1
    26   12   42 1
    27   12   60 1
    28   13   14 1
    29   13   43 1
    30   13   44 1
    31   14   15 am
    32   14   45 1
    33   15   16 2
    34   15   17 1
    35   17   18 1
    36   17   19 1
    37   17   60 1
    38   19   20 1
    39   19   46 1
    40   19   47 1
    41   20   21 2
    42   20   22 am
    43   22   27 1
    44   22   23 1
    45   23   24 1
    46   23   48 1
    47   23   49 1
    48   24   25 1
    49   24   50 1
    50   24   51 1
    51   25   26 1
    52   25   28 1
    53   25   52 1
    54   26   27 1
    55   26   53 1
    56   26   54 1
    57   27   55 1
    58   27   56 1
    59   28   29 1
    60   29   57 1
    61   29   58 1
    62   29   59 1
    63   60   61 1
