@<TRIPOS>MOLECULE
ZINC60336874
   45    49     0     0     0
SMALL
USER_CHARGES

@<TRIPOS>ATOM
      1 C1         -0.0178    1.4608    0.0101 C.3       1 <0>         0.0548
      2 N1          0.0021   -0.0041    0.0020 N.pl3     1 <0>        -0.4805
      3 C2          0.0086   -0.8162   -1.1144 C.ar      1 <0>         0.0531
      4 C3         -0.0002   -0.5794   -2.4823 C.ar      1 <0>        -0.1132
      5 C4          0.0107   -1.6428   -3.3595 C.ar      1 <0>        -0.0946
      6 C5          0.0298   -2.9464   -2.8841 C.ar      1 <0>        -0.1291
      7 C6          0.0383   -3.1985   -1.5415 C.ar      1 <0>        -0.0572
      8 C7          0.0284   -2.1362   -0.6336 C.ar      1 <0>         0.0402
      9 N2          0.0330   -2.0632    0.7223 N.2       1 <0>        -0.4562
     10 C8          0.0235   -0.8161    1.0932 C.2       1 <0>         0.2428
     11 C9          0.0314   -0.3407    2.5232 C.3       1 <0>         0.2000
     12 N3         -1.3471   -0.2047    3.0002 N.am      1 <0>        -0.5719
     13 C10        -2.0797    0.9229    2.8904 C.2       1 <0>         0.5379
     14 O1         -1.7363    1.9764    2.3985 O.2       1 <0>        -0.4534
     15 C11        -3.4187    0.5954    3.5100 C.3       1 <0>         0.1773
     16 C12        -4.5310    0.7306    2.4743 C.3       1 <0>        -0.1550
     17 C13        -4.8001    2.2250    2.2494 C.3       1 <0>         0.0599
     18 O2         -5.2814    2.7874    3.4706 O.3       1 <0>        -0.3078
     19 C14        -4.5885    2.5318    4.6104 C.ar      1 <0>         0.1618
     20 C15        -3.6813    1.4874    4.6908 C.ar      1 <0>        -0.1819
     21 C16        -3.0023    1.2561    5.8749 C.ar      1 <0>        -0.0625
     22 C17        -3.2213    2.0637    6.9742 C.ar      1 <0>        -0.1505
     23 C18        -4.1217    3.1097    6.8949 C.ar      1 <0>        -0.0658
     24 C19        -4.8035    3.3444    5.7181 C.ar      1 <0>        -0.1495
     25 N4         -3.2820   -0.8016    3.9395 N.am      1 <0>        -0.7123
     26 C20        -2.0380   -1.1856    3.5940 C.2       1 <0>         0.7023
     27 O3         -1.5916   -2.2968    3.8015 O.2       1 <0>        -0.5102
     28 H1          1.0048    1.8381    0.0023 H         1 <0>         0.0770
     29 H2         -0.5450    1.8219   -0.8730 H         1 <0>         0.0846
     30 H3         -0.5280    1.8123    0.9069 H         1 <0>         0.1099
     31 H4         -0.0158    0.4332   -2.8576 H         1 <0>         0.1226
     32 H5          0.0039   -1.4601   -4.4239 H         1 <0>         0.1321
     33 H6          0.0378   -3.7701   -3.5826 H         1 <0>         0.1317
     34 H7          0.0525   -4.2169   -1.1824 H         1 <0>         0.1311
     35 H8          0.5608   -1.0637    3.1436 H         1 <0>         0.1376
     36 H9          0.5332    0.6251    2.5822 H         1 <0>         0.1184
     37 H10        -4.2192    0.2683    1.5378 H         1 <0>         0.0947
     38 H11        -5.4355    0.2454    2.8411 H         1 <0>         0.1050
     39 H12        -3.8762    2.7233    1.9557 H         1 <0>         0.0828
     40 H13        -5.5504    2.3485    1.4685 H         1 <0>         0.1218
     41 H14        -2.2981    0.4399    5.9396 H         1 <0>         0.1225
     42 H15        -2.6894    1.8776    7.8955 H         1 <0>         0.1308
     43 H16        -4.2918    3.7426    7.7534 H         1 <0>         0.1358
     44 H17        -5.5067    4.1618    5.6575 H         1 <0>         0.1381
     45 H18        -3.9553   -1.3422    4.3814 H         1 <0>         0.4450
@<TRIPOS>BOND
     1    1    2 1
     2    1   28 1
     3    1   29 1
     4    1   30 1
     5    2   10 1
     6    2    3 1
     7    3    8 ar
     8    3    4 ar
     9    4    5 ar
    10    4   31 1
    11    5    6 ar
    12    5   32 1
    13    6    7 ar
    14    6   33 1
    15    7    8 ar
    16    7   34 1
    17    8    9 1
    18    9   10 2
    19   10   11 1
    20   11   12 1
    21   11   35 1
    22   11   36 1
    23   12   26 am
    24   12   13 am
    25   13   14 2
    26   13   15 1
    27   15   20 1
    28   15   16 1
    29   15   25 1
    30   16   17 1
    31   16   37 1
    32   16   38 1
    33   17   18 1
    34   17   39 1
    35   17   40 1
    36   18   19 1
    37   19   24 ar
    38   19   20 ar
    39   20   21 ar
    40   21   22 ar
    41   21   41 1
    42   22   23 ar
    43   22   42 1
    44   23   24 ar
    45   23   43 1
    46   24   44 1
    47   25   26 am
    48   25   45 1
    49   26   27 2
