@<TRIPOS>MOLECULE
ZINC43424553
   39    42     0     0     0
SMALL
USER_CHARGES

@<TRIPOS>ATOM
      1 C1         -0.0168    1.3881    0.0097 C.ar      1 <0>        -0.1886
      2 C2          1.1585    2.0858    0.0022 C.ar      1 <0>        -0.0496
      3 C3          2.3616    1.3594   -0.0132 C.ar      1 <0>        -0.1463
      4 C4          3.6114    2.0128   -0.0210 C.ar      1 <0>         0.2368
      5 C5          4.7700    1.2671   -0.0357 C.ar      1 <0>        -0.2104
      6 C6          4.7205   -0.1238   -0.0433 C.ar      1 <0>        -0.0529
      7 C7          3.5151   -0.7892   -0.0359 C.ar      1 <0>         0.1384
      8 C8          2.3095   -0.0561   -0.0203 C.ar      1 <0>         0.1586
      9 N1          1.1268   -0.6781   -0.0118 N.ar      1 <0>        -0.4611
     10 C9          0.0021   -0.0041    0.0020 C.ar      1 <0>         0.1340
     11 N2          3.4857   -2.1879   -0.0442 N.pl3     1 <0>        -0.6534
     12 C10         3.4634   -2.9793   -1.2964 C.3       1 <0>         0.1195
     13 C11         2.3729   -4.0478   -1.2405 C.3       1 <0>         0.0499
     14 O1          2.3695   -4.7467    0.0176 O.3       1 <0>        -0.3695
     15 C12         2.1902   -3.8542    1.0955 C.3       1 <0>         0.0596
     16 H1          1.3240   -3.2196    0.9087 H         1 <0>         0.0767
     17 C13         3.4809   -2.9809    1.1774 C.3       1 <0>         0.1365
     18 H2          4.3634   -3.6199    1.2085 H         1 <0>         0.0658
     19 C14         3.3141   -2.2428    2.4987 C.3       1 <0>        -0.1190
     20 C15         2.4952   -3.2019    3.4005 C.3       1 <0>        -0.1150
     21 C16         2.1160   -4.4273    2.5099 C.3       1 <0>        -0.1134
     22 N3          3.6743    3.4079   -0.0144 N.pl3     1 <0>        -0.8691
     23 H3         -0.9589    1.9159    0.0260 H         1 <0>         0.1349
     24 H4          1.1626    3.1658    0.0076 H         1 <0>         0.1297
     25 H5          5.7271    1.7675   -0.0417 H         1 <0>         0.1257
     26 H6          5.6406   -0.6892   -0.0556 H         1 <0>         0.1280
     27 H7         -0.9339   -0.5428    0.0081 H         1 <0>         0.1557
     28 H8          3.2714   -2.3141   -2.1382 H         1 <0>         0.0738
     29 H9          4.4314   -3.4611   -1.4339 H         1 <0>         0.0532
     30 H10         1.4027   -3.5723   -1.3848 H         1 <0>         0.0548
     31 H11         2.5377   -4.7652   -2.0444 H         1 <0>         0.0950
     32 H12         4.2879   -2.0430    2.9456 H         1 <0>         0.0674
     33 H13         2.7695   -1.3112    2.3451 H         1 <0>         0.0687
     34 H14         3.0969   -3.5205    4.2517 H         1 <0>         0.0712
     35 H15         1.5881   -2.7067    3.7470 H         1 <0>         0.0658
     36 H16         1.1088   -4.7803    2.7312 H         1 <0>         0.0729
     37 H17         2.8445   -5.2275    2.6411 H         1 <0>         0.0741
     38 H18         2.8571    3.9303   -0.0044 H         1 <0>         0.3978
     39 H19         4.5354    3.8546   -0.0199 H         1 <0>         0.4038
@<TRIPOS>BOND
     1    1   10 ar
     2    1    2 ar
     3    1   23 1
     4    2    3 ar
     5    2   24 1
     6    3    8 ar
     7    3    4 ar
     8    4    5 ar
     9    4   22 1
    10    5    6 ar
    11    5   25 1
    12    6    7 ar
    13    6   26 1
    14    7    8 ar
    15    7   11 1
    16    8    9 ar
    17    9   10 ar
    18   10   27 1
    19   11   17 1
    20   11   12 1
    21   12   13 1
    22   12   28 1
    23   12   29 1
    24   13   14 1
    25   13   30 1
    26   13   31 1
    27   14   15 1
    28   15   16 1
    29   15   21 1
    30   15   17 1
    31   17   18 1
    32   17   19 1
    33   19   20 1
    34   19   32 1
    35   19   33 1
    36   20   21 1
    37   20   34 1
    38   20   35 1
    39   21   36 1
    40   21   37 1
    41   22   38 1
    42   22   39 1
