@<TRIPOS>MOLECULE
ZINC39695861
   65    69     0     0     0
SMALL
USER_CHARGES

@<TRIPOS>ATOM
      1 C1          5.9172   -1.7751    3.3618 C.3       1 <0>        -0.1183
      2 C2          4.8862   -2.8681    3.2460 C.ar      1 <0>        -0.0550
      3 C3          5.2549   -4.1145    2.7599 C.ar      1 <0>        -0.1212
      4 C4          4.3353   -5.1184    2.6473 C.ar      1 <0>        -0.0599
      5 C5          3.0088   -4.8931    3.0245 C.ar      1 <0>         0.0399
      6 C6          2.6351   -3.6314    3.5172 C.ar      1 <0>         0.0607
      7 C7          3.5845   -2.6247    3.6291 C.ar      1 <0>        -0.1165
      8 N1          1.2864   -3.7167    3.7993 N.pl3     1 <0>        -0.5899
      9 H1          0.7276   -3.0084    4.1557 H         1 <0>         0.4261
     10 C8          0.8861   -4.9782    3.4844 C.2       1 <0>         0.2614
     11 N2          1.8929   -5.6667    3.0312 N.2       1 <0>        -0.4857
     12 C9         -0.5185   -5.5020    3.6384 C.3       1 <0>         0.2269
     13 H2         -1.2294   -4.7036    3.4255 H         1 <0>         0.1121
     14 C10        -0.7234   -5.9986    5.0710 C.3       1 <0>        -0.1607
     15 N3         -0.7323   -6.6087    2.7027 N.am      1 <0>        -0.7121
     16 C11        -1.9784   -6.9060    2.2840 C.2       1 <0>         0.5246
     17 O1         -2.9227   -6.2572    2.6818 O.2       1 <0>        -0.5190
     18 C12        -2.1984   -8.0444    1.3214 C.3       1 <0>        -0.1134
     19 H3         -1.3453   -8.1430    0.6500 H         1 <0>         0.1172
     20 C13        -3.4964   -7.8224    0.5130 C.3       1 <0>         0.0902
     21 N4         -4.0853   -9.1748    0.3714 N.am      1 <0>        -0.6148
     22 C14        -3.8437   -9.8214    1.6835 C.3       1 <0>         0.1156
     23 C15        -2.4305   -9.3570    2.0885 C.3       1 <0>        -0.0724
     24 C16        -1.3947  -10.3992    1.6781 C.3       1 <0>        -0.1360
     25 C17        -1.6110  -11.6761    2.4952 C.3       1 <0>        -0.0109
     26 N5         -1.4871  -11.3706    3.9256 N.4       1 <0>        -0.5047
     27 C18        -2.5450  -10.4378    4.3321 C.3       1 <0>        -0.0074
     28 C19        -2.3685   -9.1087    3.5925 C.3       1 <0>        -0.1504
     29 C20        -4.7015   -9.6987   -0.7067 C.2       1 <0>         0.6271
     30 O2         -5.3053  -10.7507   -0.6109 O.2       1 <0>        -0.5326
     31 C21        -4.6440   -9.0003   -1.9963 C.2       1 <0>        -0.0983
     32 C22        -3.7697   -8.0133   -2.3555 C.2       1 <0>         0.0337
     33 N6         -4.0552   -7.6519   -3.6066 N.2       1 <0>        -0.4927
     34 C23        -5.0620   -8.3597   -4.0511 C.2       1 <0>         0.2220
     35 N7         -5.4592   -9.2138   -3.0910 N.pl3     1 <0>        -0.4252
     36 C24        -6.5517  -10.1851   -3.1870 C.3       1 <0>         0.0629
     37 H4          6.3883   -1.8225    4.3436 H         1 <0>         0.0764
     38 H5          6.6743   -1.9064    2.5888 H         1 <0>         0.0734
     39 H6          5.4347   -0.8057    3.2368 H         1 <0>         0.0696
     40 H7          6.2791   -4.2926    2.4673 H         1 <0>         0.1339
     41 H8          4.6329   -6.0845    2.2670 H         1 <0>         0.1307
     42 H9          3.3037   -1.6541    4.0106 H         1 <0>         0.1267
     43 H10        -0.5643   -5.1751    5.7672 H         1 <0>         0.0747
     44 H11        -1.7393   -6.3775    5.1824 H         1 <0>         0.0759
     45 H12        -0.0125   -6.7969    5.2840 H         1 <0>         0.0664
     46 H13         0.0229   -7.1276    2.3844 H         1 <0>         0.4144
     47 H14        -4.1759   -7.1671    1.0579 H         1 <0>         0.1052
     48 H15        -3.2669   -7.4033   -0.4667 H         1 <0>         0.1111
     49 H16        -4.5795   -9.4857    2.4143 H         1 <0>         0.0875
     50 H17        -3.8726  -10.9064    1.5840 H         1 <0>         0.0898
     51 H18        -1.5045  -10.6232    0.6170 H         1 <0>         0.1190
     52 H19        -0.3937  -10.0115    1.8670 H         1 <0>         0.1002
     53 H20        -2.6062  -12.0721    2.2933 H         1 <0>         0.1333
     54 H21        -0.8620  -12.4172    2.2159 H         1 <0>         0.1403
     55 H22        -1.5693  -12.2233    4.4586 H         1 <0>         0.4342
     56 H23        -3.5181  -10.8633    4.0870 H         1 <0>         0.1333
     57 H24        -2.4844  -10.2661    5.4068 H         1 <0>         0.1395
     58 H25        -1.4024   -8.6744    3.8500 H         1 <0>         0.1009
     59 H26        -3.1650   -8.4229    3.8812 H         1 <0>         0.1261
     60 H27        -2.9872   -7.5999   -1.7364 H         1 <0>         0.1851
     61 H28        -5.5018   -8.2742   -5.0337 H         1 <0>         0.2186
     62 H29        -7.4531   -9.7632   -2.7424 H         1 <0>         0.0834
     63 H30        -6.7388  -10.4190   -4.2350 H         1 <0>         0.0967
     64 H31        -6.2762  -11.0957   -2.6551 H         1 <0>         0.1018
     65 H32        -0.5859  -10.9525    4.1020 H         1 <0>         0.4287
@<TRIPOS>BOND
     1    1    2 1
     2    1   37 1
     3    1   38 1
     4    1   39 1
     5    2    7 ar
     6    2    3 ar
     7    3    4 ar
     8    3   40 1
     9    4    5 ar
    10    4   41 1
    11    5   11 1
    12    5    6 ar
    13    6    7 ar
    14    6    8 1
    15    7   42 1
    16    8    9 1
    17    8   10 1
    18   10   11 2
    19   10   12 1
    20   12   13 1
    21   12   14 1
    22   12   15 1
    23   14   43 1
    24   14   44 1
    25   14   45 1
    26   15   16 am
    27   15   46 1
    28   16   17 2
    29   16   18 1
    30   18   19 1
    31   18   23 1
    32   18   20 1
    33   20   21 1
    34   20   47 1
    35   20   48 1
    36   21   22 1
    37   21   29 am
    38   22   23 1
    39   22   49 1
    40   22   50 1
    41   23   28 1
    42   23   24 1
    43   24   25 1
    44   24   51 1
    45   24   52 1
    46   25   26 1
    47   25   53 1
    48   25   54 1
    49   26   27 1
    50   26   55 1
    51   26   65 1
    52   27   28 1
    53   27   56 1
    54   27   57 1
    55   28   58 1
    56   28   59 1
    57   29   30 2
    58   29   31 1
    59   31   35 1
    60   31   32 2
    61   32   33 1
    62   32   60 1
    63   33   34 2
    64   34   35 1
    65   34   61 1
    66   35   36 1
    67   36   62 1
    68   36   63 1
    69   36   64 1
