@<TRIPOS>MOLECULE
ZINC67306058
   51    54     0     0     0
SMALL
USER_CHARGES

@<TRIPOS>ATOM
      1 C1          0.1323    1.4638    0.3110 C.ar      1 <0>        -0.1508
      2 C2          1.0359    1.9954   -0.5991 C.ar      1 <0>        -0.1031
      3 C3          2.1108    1.2536   -1.0369 C.ar      1 <0>        -0.1333
      4 C4          2.2953   -0.0416   -0.5635 C.ar      1 <0>         0.1142
      5 C5          1.3771   -0.5754    0.3589 C.ar      1 <0>        -0.0966
      6 C6          0.2943    0.1942    0.7889 C.ar      1 <0>        -0.0747
      7 C7          1.8434   -1.9321    0.6551 C.2       1 <0>        -0.2008
      8 C8          2.9576   -2.1305   -0.0668 C.2       1 <0>         0.1210
      9 N1          3.2430   -1.0117   -0.8011 N.pl3     1 <0>        -0.5747
     10 H1          4.0003   -0.9162   -1.3996 H         1 <0>         0.4037
     11 C9          3.7731   -3.3978   -0.0686 C.3       1 <0>         0.2067
     12 H2          3.2621   -4.1620    0.5170 H         1 <0>         0.0997
     13 C10         3.9544   -3.8897   -1.5080 C.3       1 <0>        -0.1299
     14 C11         4.8970   -5.0953   -1.5160 C.3       1 <0>        -0.1209
     15 C12         6.2655   -4.6786   -0.9719 C.3       1 <0>        -0.1378
     16 C13         6.1103   -4.1957    0.4736 C.3       1 <0>         0.1049
     17 N2          5.0957   -3.1333    0.5139 N.am      1 <0>        -0.6155
     18 C14         5.3741   -1.9381    1.0711 C.2       1 <0>         0.5074
     19 O1          4.4998   -1.1059    1.1898 O.2       1 <0>        -0.4876
     20 C15         6.7717   -1.6356    1.5468 C.3       1 <0>        -0.1116
     21 C16         6.8156   -0.2445    2.1247 C.ar      1 <0>        -0.0060
     22 C17         7.1024    0.8340    1.3090 C.ar      1 <0>        -0.1262
     23 C18         7.1427    2.1101    1.8392 C.ar      1 <0>        -0.0146
     24 C19         6.8958    2.3076    3.1849 C.ar      1 <0>        -0.6738
     25 C20         6.6081    1.2291    4.0003 C.ar      1 <0>        -0.0140
     26 C21         6.5636   -0.0465    3.4694 C.ar      1 <0>        -0.1242
     27 S1          6.9483    3.9339    3.8608 S.o2      1 <0>         2.7012
     28 O2          7.2187    3.7885    5.2482 O.2       1 <0>        -0.9634
     29 O3          7.7754    4.7049    3.0001 O.2       1 <0>        -0.9639
     30 N3          5.4216    4.5640    3.7397 N.pl3     1 <0>        -1.2494
     31 H3         -0.7029    2.0603    0.6474 H         1 <0>         0.1185
     32 H4          0.8944    3.0006   -0.9678 H         1 <0>         0.1209
     33 H5          2.8078    1.6758   -1.7456 H         1 <0>         0.1132
     34 H6         -0.4125   -0.2127    1.4969 H         1 <0>         0.1171
     35 H7          1.3790   -2.6387    1.3271 H         1 <0>         0.1368
     36 H8          2.9872   -4.1814   -1.9174 H         1 <0>         0.0838
     37 H9          4.3806   -3.0906   -2.1146 H         1 <0>         0.0644
     38 H10         4.4822   -5.8848   -0.8893 H         1 <0>         0.0700
     39 H11         5.0083   -5.4626   -2.5362 H         1 <0>         0.0720
     40 H12         6.9432   -5.5319   -0.9997 H         1 <0>         0.0811
     41 H13         6.6699   -3.8721   -1.5835 H         1 <0>         0.0676
     42 H14         5.7922   -5.0259    1.1041 H         1 <0>         0.0760
     43 H15         7.0627   -3.8055    0.8326 H         1 <0>         0.0884
     44 H16         7.0589   -2.3564    2.3124 H         1 <0>         0.1088
     45 H17         7.4636   -1.7023    0.7072 H         1 <0>         0.1075
     46 H18         7.2954    0.6797    0.2577 H         1 <0>         0.1292
     47 H19         7.3675    2.9526    1.2020 H         1 <0>         0.1430
     48 H20         6.4155    1.3833    5.0518 H         1 <0>         0.1440
     49 H21         6.3351   -0.8886    4.1057 H         1 <0>         0.1320
     50 H22         4.7086    4.0358    3.3478 H         1 <0>         0.4182
     51 H23         5.2404    5.4613    4.0605 H         1 <0>         0.4214
@<TRIPOS>BOND
     1    1    6 ar
     2    1    2 ar
     3    1   31 1
     4    2    3 ar
     5    2   32 1
     6    3    4 ar
     7    3   33 1
     8    4    9 1
     9    4    5 ar
    10    5    6 ar
    11    5    7 1
    12    6   34 1
    13    7    8 2
    14    7   35 1
    15    8    9 1
    16    8   11 1
    17    9   10 1
    18   11   12 1
    19   11   17 1
    20   11   13 1
    21   13   14 1
    22   13   36 1
    23   13   37 1
    24   14   15 1
    25   14   38 1
    26   14   39 1
    27   15   16 1
    28   15   40 1
    29   15   41 1
    30   16   17 1
    31   16   42 1
    32   16   43 1
    33   17   18 am
    34   18   19 2
    35   18   20 1
    36   20   21 1
    37   20   44 1
    38   20   45 1
    39   21   26 ar
    40   21   22 ar
    41   22   23 ar
    42   22   46 1
    43   23   24 ar
    44   23   47 1
    45   24   25 ar
    46   24   27 1
    47   25   26 ar
    48   25   48 1
    49   26   49 1
    50   27   28 2
    51   27   29 2
    52   27   30 1
    53   30   50 1
    54   30   51 1
