@<TRIPOS>MOLECULE
ZINC39326133
   37    39     0     0     0
SMALL
USER_CHARGES

@<TRIPOS>ATOM
      1 C1         -0.0187    1.5258    0.0104 C.3       1 <0>        -0.1501
      2 C2          0.0021   -0.0041    0.0020 C.3       1 <0>        -0.0397
      3 C3         -1.4333   -0.5336    0.0129 C.3       1 <0>        -0.1511
      4 C4          0.7074   -0.4901   -1.2379 C.2       1 <0>         0.1522
      5 C5          1.8097   -1.2538   -1.2738 C.2       1 <0>        -0.2720
      6 C6          2.1409   -1.4829   -2.6275 C.2       1 <0>         0.2713
      7 N1          1.2613   -0.8713   -3.3662 N.2       1 <0>        -0.2550
      8 N2          0.3400   -0.2397   -2.5159 N.pl3     1 <0>        -0.4567
      9 H1         -0.4255    0.2863   -2.7957 H         1 <0>         0.4501
     10 O1          3.2164   -2.2325   -2.9898 O.3       1 <0>        -0.2107
     11 C7          3.8052   -2.9765   -2.0325 C.2       1 <0>         0.4472
     12 C8          3.5777   -2.8403   -0.7095 C.2       1 <0>        -0.2703
     13 C9          2.6258   -1.8191   -0.1396 C.3       1 <0>         0.1253
     14 H2          1.9667   -2.2954    0.5863 H         1 <0>         0.1006
     15 C10         3.4042   -0.7142    0.5271 C.ar      1 <0>        -0.0542
     16 C11         4.3139    0.0275   -0.2034 C.ar      1 <0>        -0.0800
     17 C12         5.0289    1.0414    0.4058 C.ar      1 <0>        -0.1227
     18 C13         4.8343    1.3153    1.7485 C.ar      1 <0>         0.0655
     19 C14         3.9216    0.5717    2.4810 C.ar      1 <0>         0.0715
     20 C15         3.2037   -0.4398    1.8668 C.ar      1 <0>        -0.1213
     21 F1          3.7303    0.8369    3.7918 F         1 <0>        -0.1272
     22 F2          5.5331    2.3059    2.3448 F         1 <0>        -0.1284
     23 C16         4.2727   -3.7057    0.1954 C.1       1 <0>         0.2683
     24 N3          4.8240   -4.3922    0.9133 N.1       1 <0>        -0.4379
     25 N4          4.6978   -3.9400   -2.4312 N.pl3     1 <0>        -0.8294
     26 H3          1.0039    1.9031    0.0027 H         1 <0>         0.0633
     27 H4         -0.5459    1.8868   -0.8726 H         1 <0>         0.0564
     28 H5         -0.5289    1.8773    0.9072 H         1 <0>         0.0719
     29 H6          0.5293   -0.3651    0.8851 H         1 <0>         0.1031
     30 H7         -1.9605   -0.1726   -0.8702 H         1 <0>         0.0565
     31 H8         -1.4185   -1.6235    0.0069 H         1 <0>         0.0644
     32 H9         -1.9435   -0.1821    0.9097 H         1 <0>         0.0722
     33 H10         4.4662   -0.1857   -1.2511 H         1 <0>         0.1334
     34 H11         5.7398    1.6196   -0.1657 H         1 <0>         0.1461
     35 H12         2.4897   -1.0172    2.4354 H         1 <0>         0.1469
     36 H13         4.8858   -4.0665   -3.3744 H         1 <0>         0.4131
     37 H14         5.1407   -4.4944   -1.7698 H         1 <0>         0.4275
@<TRIPOS>BOND
     1    1    2 1
     2    1   26 1
     3    1   27 1
     4    1   28 1
     5    2    3 1
     6    2    4 1
     7    2   29 1
     8    3   30 1
     9    3   31 1
    10    3   32 1
    11    4    8 1
    12    4    5 2
    13    5   13 1
    14    5    6 1
    15    6    7 2
    16    6   10 1
    17    7    8 1
    18    8    9 1
    19   10   11 1
    20   11   12 2
    21   11   25 1
    22   12   13 1
    23   12   23 1
    24   13   14 1
    25   13   15 1
    26   15   20 ar
    27   15   16 ar
    28   16   17 ar
    29   16   33 1
    30   17   18 ar
    31   17   34 1
    32   18   19 ar
    33   18   22 1
    34   19   20 ar
    35   19   21 1
    36   20   35 1
    37   23   24 3
    38   25   36 1
    39   25   37 1
