@<TRIPOS>MOLECULE
ZINC45337182
   45    45     0     0     0
SMALL
USER_CHARGES

@<TRIPOS>ATOM
      1 C1         -0.0187    1.5258    0.0104 C.3       1 <0>        -0.1674
      2 C2          0.0021   -0.0041    0.0020 C.3       1 <0>         0.1342
      3 C3          0.7421   -0.5109    1.2415 C.3       1 <0>        -0.1632
      4 N1         -1.3723   -0.5112    0.0124 N.am      1 <0>        -0.6905
      5 C4         -2.0508   -0.6427   -1.1446 C.2       1 <0>         0.5221
      6 O1         -1.5233   -0.3412   -2.1950 O.2       1 <0>        -0.5081
      7 C5         -3.4529   -1.1600   -1.1340 C.2       1 <0>         0.5085
      8 O2         -3.9804   -1.4616   -0.0836 O.2       1 <0>        -0.5181
      9 N2         -4.1314   -1.2916   -2.2911 N.am      1 <0>        -0.4882
     10 N3         -5.4458   -1.7765   -2.2811 N.am      1 <0>        -0.5170
     11 C6         -6.1243   -1.9081   -3.4382 C.2       1 <0>         0.5662
     12 O3         -5.5958   -1.6060   -4.4905 O.2       1 <0>        -0.5132
     13 C7         -7.5102   -2.4194   -3.4277 C.ar      1 <0>        -0.1575
     14 C8         -8.1217   -2.7618   -2.2196 C.ar      1 <0>        -0.0036
     15 C9         -9.4149   -3.2384   -2.2155 C.ar      1 <0>        -0.1700
     16 C10       -10.1086   -3.3787   -3.4081 C.ar      1 <0>         0.2230
     17 C11        -9.5064   -3.0403   -4.6101 C.ar      1 <0>        -0.7217
     18 C12        -8.2154   -2.5567   -4.6250 C.ar      1 <0>         0.0734
     19 S1        -10.3948   -3.2221   -6.1207 S.o2      1 <0>         2.6961
     20 O4        -11.6625   -2.6115   -5.9224 O.2       1 <0>        -0.9370
     21 O5         -9.5124   -2.8249   -7.1613 O.2       1 <0>        -0.9424
     22 N4        -10.6768   -4.8403   -6.3312 N.pl3     1 <0>        -1.1090
     23 C13       -11.5393   -5.5618   -5.3922 C.3       1 <0>         0.1386
     24 C14       -11.9308   -6.8894   -5.9883 C.2       1 <0>        -0.1711
     25 C15       -11.6991   -7.9973   -5.3288 C.2       1 <0>        -0.1648
     26 F1        -11.3757   -3.8472   -3.3986 F         1 <0>        -0.1110
     27 H1          1.0039    1.9031    0.0027 H         1 <0>         0.0729
     28 H2         -0.5459    1.8868   -0.8726 H         1 <0>         0.0626
     29 H3         -0.5289    1.8773    0.9072 H         1 <0>         0.0607
     30 H4          0.5123   -0.3556   -0.8948 H         1 <0>         0.0958
     31 H5          0.2319   -0.1594    2.1383 H         1 <0>         0.0650
     32 H6          0.7568   -1.6008    1.2356 H         1 <0>         0.0650
     33 H7          1.7647   -0.1336    1.2338 H         1 <0>         0.0795
     34 H8         -1.7940   -0.7522    0.8520 H         1 <0>         0.4140
     35 H9         -3.7098   -1.0505   -3.1307 H         1 <0>         0.4478
     36 H10        -5.8675   -2.0176   -1.4415 H         1 <0>         0.4331
     37 H11        -7.5821   -2.6537   -1.2903 H         1 <0>         0.1488
     38 H12        -9.8887   -3.5035   -1.2819 H         1 <0>         0.1601
     39 H13        -7.7489   -2.2888   -5.5614 H         1 <0>         0.1723
     40 H14       -10.2708   -5.3104   -7.0762 H         1 <0>         0.4243
     41 H15       -11.0017   -5.7271   -4.4585 H         1 <0>         0.0685
     42 H16       -12.4355   -4.9731   -5.1962 H         1 <0>         0.0952
     43 H17       -12.4025   -6.9274   -6.9591 H         1 <0>         0.1202
     44 H18       -11.9797   -8.9487   -5.7559 H         1 <0>         0.1059
     45 H19       -11.2274   -7.9593   -4.3580 H         1 <0>         0.0997
@<TRIPOS>BOND
     1    1    2 1
     2    1   27 1
     3    1   28 1
     4    1   29 1
     5    2    3 1
     6    2    4 1
     7    2   30 1
     8    3   31 1
     9    3   32 1
    10    3   33 1
    11    4    5 am
    12    4   34 1
    13    5    6 2
    14    5    7 1
    15    7    8 2
    16    7    9 am
    17    9   10 1
    18    9   35 1
    19   10   11 am
    20   10   36 1
    21   11   12 2
    22   11   13 1
    23   13   18 ar
    24   13   14 ar
    25   14   15 ar
    26   14   37 1
    27   15   16 ar
    28   15   38 1
    29   16   17 ar
    30   16   26 1
    31   17   18 ar
    32   17   19 1
    33   18   39 1
    34   19   20 2
    35   19   21 2
    36   19   22 1
    37   22   23 1
    38   22   40 1
    39   23   24 1
    40   23   41 1
    41   23   42 1
    42   24   25 2
    43   24   43 1
    44   25   44 1
    45   25   45 1
