@<TRIPOS>MOLECULE
ZINC39696884
   64    67     0     0     0
SMALL
USER_CHARGES

@<TRIPOS>ATOM
      1 C1          0.0459    1.3278   -0.0199 C.3       1 <0>        -0.0865
      2 C2          0.0906   -0.1741   -0.1356 C.2       1 <0>         0.1365
      3 C3          0.0831   -0.9509   -1.3762 C.2       1 <0>        -0.3161
      4 C4          0.1351   -2.2676   -1.0179 C.2       1 <0>         0.1349
      5 O1          0.1722   -2.3325    0.3155 O.3       1 <0>        -0.0697
      6 N1          0.1488   -1.0230    0.8476 N.2       1 <0>        -0.2978
      7 C5          0.1482   -3.4421   -1.9620 C.3       1 <0>        -0.0987
      8 C6          0.0292   -0.4150   -2.7483 C.2       1 <0>         0.6271
      9 O2          1.0593   -0.1597   -3.3422 O.2       1 <0>        -0.5135
     10 N2         -1.1615   -0.2081   -3.3446 N.am      1 <0>        -0.6157
     11 C7         -2.5121   -0.4503   -2.7847 C.3       1 <0>         0.1120
     12 C8         -3.3607    0.7409   -3.2833 C.3       1 <0>        -0.1126
     13 H1         -3.3900    1.5278   -2.5296 H         1 <0>         0.1120
     14 C9         -2.6375    1.2363   -4.5469 C.3       1 <0>        -0.0712
     15 C10        -1.4163    0.3193   -4.7066 C.3       1 <0>         0.1076
     16 C11        -2.1841    2.6815   -4.3639 C.3       1 <0>        -0.1349
     17 C12        -1.5186    3.1698   -5.6537 C.3       1 <0>        -0.0111
     18 N3         -2.4719    3.0719   -6.7656 N.4       1 <0>        -0.5046
     19 C13        -2.8318    1.6674   -6.9947 C.3       1 <0>        -0.0072
     20 C14        -3.5526    1.1154   -5.7616 C.3       1 <0>        -0.1473
     21 C15        -4.7574    0.2857   -3.6196 C.2       1 <0>         0.5203
     22 O3         -4.9472   -0.8429   -4.0212 O.2       1 <0>        -0.5220
     23 N4         -5.7956    1.1328   -3.4743 N.am      1 <0>        -0.7198
     24 C16        -7.1533    0.6903   -3.8013 C.3       1 <0>         0.1272
     25 C17        -8.1372    1.8346   -3.5496 C.3       1 <0>         0.0824
     26 H2         -8.0306    2.1873   -2.5237 H         1 <0>         0.0780
     27 C18        -9.5678    1.3374   -3.7731 C.3       1 <0>         0.0237
     28 N5        -10.5029    2.4593   -3.6054 N.3       1 <0>        -0.5413
     29 C19       -10.1922    3.5421   -4.5501 C.3       1 <0>         0.0126
     30 C20        -8.7553    4.0172   -4.3187 C.3       1 <0>         0.0660
     31 O4         -7.8631    2.9078   -4.4543 O.3       1 <0>        -0.3862
     32 C21       -11.8940    2.0122   -3.7561 C.3       1 <0>         0.0221
     33 H3          1.0618    1.7229   -0.0238 H         1 <0>         0.0979
     34 H4         -0.5078    1.7409   -0.8630 H         1 <0>         0.0804
     35 H5         -0.4485    1.6059    0.9109 H         1 <0>         0.0923
     36 H6          1.1781   -3.6921   -2.2167 H         1 <0>         0.1072
     37 H7         -0.3258   -4.2987   -1.4829 H         1 <0>         0.1000
     38 H8         -0.3983   -3.1850   -2.8694 H         1 <0>         0.0937
     39 H9         -2.9170   -1.3895   -3.1617 H         1 <0>         0.1018
     40 H10        -2.4755   -0.4612   -1.6954 H         1 <0>         0.0916
     41 H11        -0.5573    0.8894   -5.0606 H         1 <0>         0.0915
     42 H12        -1.6426   -0.4957   -5.3940 H         1 <0>         0.0875
     43 H13        -3.0474    3.3081   -4.1401 H         1 <0>         0.0980
     44 H14        -1.4702    2.7376   -3.5422 H         1 <0>         0.1175
     45 H15        -1.2082    4.2075   -5.5318 H         1 <0>         0.1400
     46 H16        -0.6460    2.5528   -5.8681 H         1 <0>         0.1341
     47 H17        -3.3030    3.5984   -6.5418 H         1 <0>         0.4285
     48 H18        -3.4894    1.5978   -7.8612 H         1 <0>         0.1392
     49 H19        -1.9280    1.0862   -7.1775 H         1 <0>         0.1330
     50 H20        -3.8033    0.0674   -5.9254 H         1 <0>         0.1265
     51 H21        -4.4652    1.6856   -5.5879 H         1 <0>         0.1000
     52 H22        -5.6438    2.0354   -3.1531 H         1 <0>         0.4046
     53 H23        -7.1973    0.3974   -4.8503 H         1 <0>         0.0803
     54 H24        -7.4186   -0.1614   -3.1749 H         1 <0>         0.0908
     55 H25        -9.6597    0.9346   -4.7818 H         1 <0>         0.0484
     56 H26        -9.8000    0.5583   -3.0470 H         1 <0>         0.0923
     57 H27       -10.2941    3.1746   -5.5712 H         1 <0>         0.0451
     58 H28       -10.8802    4.3724   -4.3910 H         1 <0>         0.0913
     59 H29        -8.5015    4.7805   -5.0543 H         1 <0>         0.1014
     60 H30        -8.6669    4.4340   -3.3154 H         1 <0>         0.0634
     61 H31       -12.1164    1.2563   -3.0029 H         1 <0>         0.0750
     62 H32       -12.5647    2.8617   -3.6274 H         1 <0>         0.0753
     63 H33       -12.0333    1.5868   -4.7500 H         1 <0>         0.0308
     64 H34        -2.0519    3.4507   -7.6013 H         1 <0>         0.4342
@<TRIPOS>BOND
     1    1    2 1
     2    1   33 1
     3    1   34 1
     4    1   35 1
     5    2    6 2
     6    2    3 1
     7    3    4 2
     8    3    8 1
     9    4    5 1
    10    4    7 1
    11    5    6 1
    12    7   36 1
    13    7   37 1
    14    7   38 1
    15    8    9 2
    16    8   10 am
    17   10   15 1
    18   10   11 1
    19   11   12 1
    20   11   39 1
    21   11   40 1
    22   12   13 1
    23   12   14 1
    24   12   21 1
    25   14   20 1
    26   14   15 1
    27   14   16 1
    28   15   41 1
    29   15   42 1
    30   16   17 1
    31   16   43 1
    32   16   44 1
    33   17   18 1
    34   17   45 1
    35   17   46 1
    36   18   19 1
    37   18   47 1
    38   18   64 1
    39   19   20 1
    40   19   48 1
    41   19   49 1
    42   20   50 1
    43   20   51 1
    44   21   22 2
    45   21   23 am
    46   23   24 1
    47   23   52 1
    48   24   25 1
    49   24   53 1
    50   24   54 1
    51   25   26 1
    52   25   31 1
    53   25   27 1
    54   27   28 1
    55   27   55 1
    56   27   56 1
    57   28   29 1
    58   28   32 1
    59   29   30 1
    60   29   57 1
    61   29   58 1
    62   30   31 1
    63   30   59 1
    64   30   60 1
    65   32   61 1
    66   32   62 1
    67   32   63 1
