@<TRIPOS>MOLECULE
ZINC20923271
   47    49     0     0     0
SMALL
USER_CHARGES
4-fluoro-N'-[2-[[5-[(N'E)-N'-[(2-hydroxy-5-nitro-phenyl)methylene]hydrazino]-4H-1,2,4-triazol-3-yl]sulfanyl]acetyl]benzohydrazide
@<TRIPOS>ATOM
      1 C1          7.9407   -6.5944   -0.1018 C.ar      1 <0>        -0.0553
      2 C2          8.6441   -7.7797   -0.1209 C.ar      1 <0>        -0.1584
      3 C3         10.0305   -7.7659   -0.1337 C.ar      1 <0>         0.1283
      4 C4         10.7168   -6.5611   -0.1343 C.ar      1 <0>        -0.1599
      5 C5         10.0233   -5.3700   -0.1216 C.ar      1 <0>        -0.0257
      6 C6          8.6269   -5.3781   -0.1081 C.ar      1 <0>        -0.1376
      7 C7          7.8783   -4.1046   -0.0945 C.2       1 <0>         0.5636
      8 O1          8.4779   -3.0471   -0.0950 O.2       1 <0>        -0.5386
      9 N1          6.5307   -4.1152   -0.0816 N.am      1 <0>        -0.5262
     10 N2          5.8207   -2.9075   -0.0687 N.am      1 <0>        -0.5280
     11 C8          4.4731   -2.9181   -0.0557 C.2       1 <0>         0.5405
     12 O2          3.8749   -3.9732   -0.0553 O.2       1 <0>        -0.5299
     13 C9          3.7094   -1.6190   -0.0418 C.3       1 <0>        -0.1573
     14 S1          1.9326   -1.9637   -0.0264 S.3       1 <0>         0.1370
     15 C10         1.3198   -0.3652   -0.0125 C.2       1 <0>         0.1244
     16 N3          0.0021   -0.0041    0.0020 N.2       1 <0>        -0.5232
     17 C11        -0.0165    1.3690    0.0096 C.2       1 <0>         0.4786
     18 N4          1.2626    1.7867   -0.0004 N.pl3     1 <0>        -0.4054
     19 N5          2.0481    0.7686   -0.0134 N.2       1 <0>        -0.3317
     20 N6         -1.1043    2.1469    0.0192 N.pl3     1 <0>        -0.4956
     21 N7         -0.9791    3.4308    0.0256 N.2       1 <0>        -0.2314
     22 C12        -2.0509    4.1973    0.0350 C.2       1 <0>         0.1062
     23 C13        -1.9134    5.6073    0.0420 C.ar      1 <0>        -0.1956
     24 C14        -3.0528    6.4306    0.0522 C.ar      1 <0>         0.0252
     25 C15        -2.9127    7.7877    0.0593 C.ar      1 <0>        -0.1193
     26 C16        -1.6500    8.3672    0.0571 C.ar      1 <0>        -0.0141
     27 C17        -0.5155    7.5794    0.0472 C.ar      1 <0>        -0.2320
     28 C18        -0.6303    6.1977    0.0448 C.ar      1 <0>         0.3289
     29 O3          0.4794    5.4200    0.0403 O.3       1 <0>        -0.6252
     30 N8         -4.1158    8.6497    0.0700 N.pl3     1 <0>         0.0296
     31 O4         -5.3154    8.1060    0.0725 O.2       1 <0>        -0.2553
     32 O5         -3.9868    9.9603    0.0769 O.3       1 <0>        -0.2533
     33 F1         10.7151   -8.9305   -0.1462 F         1 <0>        -0.1322
     34 H1          6.8609   -6.6062   -0.0866 H         1 <0>         0.1384
     35 H2          8.1144   -8.7208   -0.1209 H         1 <0>         0.1458
     36 H3         11.7968   -6.5560   -0.1450 H         1 <0>         0.1459
     37 H4         10.5589   -4.4321   -0.1223 H         1 <0>         0.1498
     38 H5          5.9882   -5.0721   -0.0812 H         1 <0>         0.4562
     39 H6          6.3632   -1.9506   -0.0692 H         1 <0>         0.4635
     40 H7          3.9793   -1.0446    0.8567 H         1 <0>         0.1291
     41 H8          3.9619   -1.0356   -0.9395 H         1 <0>         0.1290
     42 H9         -2.1058    1.6919    0.0216 H         1 <0>         0.4109
     43 H10        -3.0524    3.7424    0.0374 H         1 <0>         0.1094
     44 H11        -4.0384    5.9891    0.0539 H         1 <0>         0.1342
     45 H12        -1.5547    9.4430    0.0636 H         1 <0>         0.1301
     46 H13         0.4615    8.0398    0.0456 H         1 <0>         0.1268
     47 H14         1.4898    2.8630    0.0032 H         1 <0>         0.4999
@<TRIPOS>BOND
     1    1    6 ar
     2    1    2 ar
     3    1   34 1
     4    2    3 ar
     5    2   35 1
     6    3    4 ar
     7    3   33 1
     8    4    5 ar
     9    4   36 1
    10    5    6 ar
    11    5   37 1
    12    6    7 1
    13    7    8 2
    14    7    9 am
    15    9   10 1
    16    9   38 1
    17   10   11 am
    18   10   39 1
    19   11   12 2
    20   11   13 1
    21   13   14 1
    22   13   40 1
    23   13   41 1
    24   14   15 1
    25   15   19 2
    26   15   16 1
    27   16   17 2
    28   17   18 1
    29   17   20 1
    30   18   19 1
    31   18   47 1
    32   20   21 1
    33   20   42 1
    34   21   22 2
    35   22   23 1
    36   22   43 1
    37   23   28 ar
    38   23   24 ar
    39   24   25 ar
    40   24   44 1
    41   25   26 ar
    42   25   30 1
    43   26   27 ar
    44   26   45 1
    45   27   28 ar
    46   27   46 1
    47   28   29 1
    48   30   31 2
    49   30   32 1
