@<TRIPOS>MOLECULE
ZINC39670757
   69    73     0     0     0
SMALL
USER_CHARGES

@<TRIPOS>ATOM
      1 C1         -2.7142    0.7437   -2.7464 C.3       1 <0>        -0.1397
      2 C2         -2.0178   -0.4417   -2.0751 C.3       1 <0>        -0.1204
      3 S1         -0.5174   -0.8657   -3.0023 S.3       1 <0>        -0.0182
      4 C3          0.1606   -2.2291   -2.1156 C.ar      1 <0>         0.1702
      5 C4          1.3559   -2.8252   -2.5559 C.ar      1 <0>        -0.1803
      6 C5          1.8748   -3.9063   -1.8347 C.ar      1 <0>        -0.0290
      7 C6          1.1862   -4.3420   -0.7163 C.ar      1 <0>        -0.1898
      8 C7          0.0158   -3.7044   -0.3450 C.ar      1 <0>         0.1518
      9 N1         -0.4551   -2.6839   -1.0343 N.ar      1 <0>        -0.4917
     10 C8          2.0488   -2.3210   -3.7550 C.2       1 <0>         0.5987
     11 O1          2.0459   -1.1306   -4.0036 O.2       1 <0>        -0.4964
     12 N2          2.6857   -3.1793   -4.5762 N.am      1 <0>        -0.6160
     13 C9          2.7109   -4.6590   -4.5007 C.3       1 <0>         0.1090
     14 C10         2.6256   -5.1264   -5.9709 C.3       1 <0>        -0.1116
     15 H1          3.2497   -6.0064   -6.1262 H         1 <0>         0.1193
     16 C11         3.1590   -3.9400   -6.7914 C.3       1 <0>        -0.0738
     17 C12         3.5139   -2.8564   -5.7628 C.3       1 <0>         0.1065
     18 C13         4.4014   -4.3546   -7.5738 C.3       1 <0>        -0.1319
     19 C14         4.8790   -3.1756   -8.4262 C.3       1 <0>        -0.0121
     20 N3          3.8099   -2.7696   -9.3464 N.4       1 <0>        -0.5044
     21 C15         2.6519   -2.2848   -8.5856 C.3       1 <0>        -0.0110
     22 C16         2.0800   -3.4262   -7.7399 C.3       1 <0>        -0.1453
     23 C17         1.1965   -5.4254   -6.3444 C.2       1 <0>         0.5201
     24 O2          0.2909   -4.8215   -5.8094 O.2       1 <0>        -0.4915
     25 N4          0.9248   -6.3638   -7.2728 N.am      1 <0>        -0.7402
     26 C18        -0.4644   -6.6545   -7.6358 C.3       1 <0>         0.1782
     27 C19        -0.4936   -7.7338   -8.6872 C.2       1 <0>         0.0695
     28 C20        -0.5537   -7.5325  -10.0218 C.2       1 <0>        -0.0045
     29 N5         -0.5603   -8.7649  -10.6165 N.pl3     1 <0>        -0.3291
     30 C21        -0.6096   -9.1598  -11.9220 C.2       1 <0>         0.1211
     31 C22        -0.6029  -10.4702  -12.2442 C.2       1 <0>        -0.1135
     32 C23        -0.5454  -11.4475  -11.2368 C.2       1 <0>        -0.0016
     33 C24        -0.4959  -11.0676   -9.9316 C.2       1 <0>        -0.1339
     34 C25        -0.5031   -9.6952   -9.6114 C.cat     1 <0>         0.3199
     35 N6         -0.4586   -9.0481   -8.4553 N.pl3     1 <0>        -0.5044
     36 C26        -0.6726   -8.1228  -13.0137 C.3       1 <0>        -0.1304
     37 H2         -2.0409    1.6008   -2.7596 H         1 <0>         0.0670
     38 H3         -2.9821    0.4764   -3.7686 H         1 <0>         0.0623
     39 H4         -3.6158    0.9985   -2.1893 H         1 <0>         0.0804
     40 H5         -1.7498   -0.1744   -1.0529 H         1 <0>         0.0944
     41 H6         -2.6911   -1.2988   -2.0619 H         1 <0>         0.0902
     42 H7          2.7902   -4.3890   -2.1436 H         1 <0>         0.1405
     43 H8          1.5594   -5.1741   -0.1377 H         1 <0>         0.1475
     44 H9         -0.5201   -4.0465    0.5281 H         1 <0>         0.1690
     45 H10         3.6412   -5.0005   -4.0467 H         1 <0>         0.0945
     46 H11         1.8542   -5.0253   -3.9351 H         1 <0>         0.1000
     47 H12         3.2584   -1.8692   -6.1479 H         1 <0>         0.0934
     48 H13         4.5735   -2.9054   -5.5119 H         1 <0>         0.0886
     49 H14         5.1895   -4.6438   -6.8785 H         1 <0>         0.1241
     50 H15         4.1593   -5.1973   -8.2213 H         1 <0>         0.0937
     51 H16         5.1363   -2.3388   -7.7769 H         1 <0>         0.1365
     52 H17         5.7571   -3.4738   -8.9990 H         1 <0>         0.1422
     53 H18         4.1474   -2.0335   -9.9483 H         1 <0>         0.4375
     54 H19         2.9622   -1.4692   -7.9324 H         1 <0>         0.1385
     55 H20         1.8882   -1.9264   -9.2758 H         1 <0>         0.1401
     56 H21         1.7545   -4.2355   -8.3935 H         1 <0>         0.0891
     57 H22         1.2312   -3.0608   -7.1618 H         1 <0>         0.1257
     58 H23         1.6491   -6.8468   -7.7006 H         1 <0>         0.4034
     59 H24        -1.0075   -6.9923   -6.7532 H         1 <0>         0.1076
     60 H25        -0.9338   -5.7523   -8.0281 H         1 <0>         0.1194
     61 H26        -0.5901   -6.5776  -10.5251 H         1 <0>         0.2243
     62 H27        -0.6424  -10.7690  -13.2814 H         1 <0>         0.1864
     63 H28        -0.5410  -12.4956  -11.4974 H         1 <0>         0.1807
     64 H29        -0.4518  -11.8103   -9.1487 H         1 <0>         0.1832
     65 H30         0.3389   -7.8565  -13.3207 H         1 <0>         0.1049
     66 H31        -1.2169   -8.5267  -13.8674 H         1 <0>         0.1162
     67 H32        -1.1852   -7.2353  -12.6428 H         1 <0>         0.0876
     68 H33         3.5338   -3.5605   -9.9090 H         1 <0>         0.4239
     69 H34        -0.4105   -9.4635   -7.5800 H         1 <0>         0.4637
@<TRIPOS>BOND
     1    1    2 1
     2    1   37 1
     3    1   38 1
     4    1   39 1
     5    2    3 1
     6    2   40 1
     7    2   41 1
     8    3    4 1
     9    4    9 ar
    10    4    5 ar
    11    5    6 ar
    12    5   10 1
    13    6    7 ar
    14    6   42 1
    15    7    8 ar
    16    7   43 1
    17    8    9 ar
    18    8   44 1
    19   10   11 2
    20   10   12 am
    21   12   17 1
    22   12   13 1
    23   13   14 1
    24   13   45 1
    25   13   46 1
    26   14   15 1
    27   14   16 1
    28   14   23 1
    29   16   22 1
    30   16   17 1
    31   16   18 1
    32   17   47 1
    33   17   48 1
    34   18   19 1
    35   18   49 1
    36   18   50 1
    37   19   20 1
    38   19   51 1
    39   19   52 1
    40   20   21 1
    41   20   53 1
    42   20   68 1
    43   21   22 1
    44   21   54 1
    45   21   55 1
    46   22   56 1
    47   22   57 1
    48   23   24 2
    49   23   25 am
    50   25   26 1
    51   25   58 1
    52   26   27 1
    53   26   59 1
    54   26   60 1
    55   27   35 1
    56   27   28 2
    57   28   29 1
    58   28   61 1
    59   29   34 1
    60   29   30 1
    61   30   31 2
    62   30   36 1
    63   31   32 1
    64   31   62 1
    65   32   33 2
    66   32   63 1
    67   33   34 1
    68   33   64 1
    69   34   35 2
    70   35   69 1
    71   36   65 1
    72   36   66 1
    73   36   67 1
