@<TRIPOS>MOLECULE
ZINC39730929
   58    62     0     0     0
SMALL
USER_CHARGES

@<TRIPOS>ATOM
      1 C1         -0.0187    1.5258    0.0104 C.3       1 <0>        -0.1582
      2 C2          0.0021   -0.0041    0.0020 C.3       1 <0>         0.1601
      3 H1          0.5115   -0.3605   -0.8933 H         1 <0>         0.1013
      4 C3         -1.4331   -0.5418    0.0302 C.3       1 <0>        -0.1209
      5 H2         -1.8649   -0.4592   -0.9672 H         1 <0>         0.1305
      6 C4         -1.4680   -1.9789    0.4639 C.2       1 <0>         0.2177
      7 N1         -0.6192   -2.4797    1.3024 N.2       1 <0>        -0.4296
      8 C5          0.3711   -1.6758    1.7915 C.2       1 <0>         0.4214
      9 N2          0.6938   -0.4955    1.1929 N.pl3     1 <0>        -0.4008
     10 N3          1.7341    0.0571    1.9321 N.2       1 <0>        -0.2915
     11 C6          1.9857   -0.7786    2.9127 C.2       1 <0>         0.1992
     12 N4          1.1583   -1.8236    2.8257 N.2       1 <0>        -0.5014
     13 C7         -2.5381   -2.8768   -0.1016 C.3       1 <0>        -0.1239
     14 C8         -2.2627    0.2951    1.0061 C.3       1 <0>        -0.0978
     15 C9         -3.7242   -0.1538    0.9482 C.3       1 <0>        -0.1482
     16 C10        -4.5414    0.6706    1.9093 C.2       1 <0>         0.5187
     17 O1         -4.0074    1.5322    2.5751 O.2       1 <0>        -0.5336
     18 N5         -5.8656    0.4502    2.0291 N.am      1 <0>        -0.6153
     19 C11        -6.5256   -0.5941    1.2338 C.3       1 <0>         0.1121
     20 C12        -7.7069    0.0297    0.4841 C.3       1 <0>        -0.1521
     21 C13        -8.6267    0.7334    1.4846 C.3       1 <0>         0.1679
     22 C14        -7.8561    1.8526    2.1886 C.3       1 <0>        -0.1500
     23 C15        -6.6755    1.2457    2.9618 C.3       1 <0>         0.1170
     24 N6         -9.7749    1.3029    0.7750 N.am      1 <0>        -0.5352
     25 C16       -11.1123    0.9882    1.0037 C.ar      1 <0>         0.0904
     26 C17       -11.7501    0.1252    1.8819 C.ar      1 <0>        -0.1057
     27 C18       -13.1277    0.0286    1.8719 C.ar      1 <0>        -0.1068
     28 C19       -13.8745    0.7894    0.9886 C.ar      1 <0>        -0.1089
     29 C20       -13.2482    1.6514    0.1100 C.ar      1 <0>        -0.1039
     30 C21       -11.8655    1.7558    0.1132 C.ar      1 <0>         0.0875
     31 N7        -10.9624    2.5132   -0.6290 N.am      1 <0>        -0.6448
     32 H3        -11.1915    3.1444   -1.3290 H         1 <0>         0.4348
     33 C22        -9.7176    2.2241   -0.2053 C.2       1 <0>         0.6825
     34 O2         -8.6955    2.7177   -0.6441 O.2       1 <0>        -0.5504
     35 H4          1.0039    1.9031    0.0027 H         1 <0>         0.0778
     36 H5         -0.5459    1.8868   -0.8726 H         1 <0>         0.0832
     37 H6         -0.5289    1.8773    0.9072 H         1 <0>         0.0764
     38 H7          2.7418   -0.6417    3.6716 H         1 <0>         0.2254
     39 H8         -2.1745   -3.3434   -1.0171 H         1 <0>         0.0995
     40 H9         -2.7862   -3.6493    0.6263 H         1 <0>         0.0934
     41 H10        -3.4277   -2.2870   -0.3229 H         1 <0>         0.0888
     42 H11        -1.8805    0.1586    2.0177 H         1 <0>         0.0723
     43 H12        -2.1947    1.3476    0.7309 H         1 <0>         0.0984
     44 H13        -4.1064   -0.0173   -0.0635 H         1 <0>         0.1039
     45 H14        -3.7922   -1.2063    1.2233 H         1 <0>         0.0995
     46 H15        -5.8172   -1.0106    0.5177 H         1 <0>         0.0939
     47 H16        -6.8871   -1.3825    1.8940 H         1 <0>         0.0773
     48 H17        -7.3360    0.7542   -0.2410 H         1 <0>         0.0897
     49 H18        -8.2629   -0.7519   -0.0337 H         1 <0>         0.0837
     50 H19        -8.9776    0.0134    2.2239 H         1 <0>         0.1012
     51 H20        -7.4838    2.5599    1.4476 H         1 <0>         0.0885
     52 H21        -8.5182    2.3685    2.8841 H         1 <0>         0.0811
     53 H22        -7.0490    0.6043    3.7601 H         1 <0>         0.0729
     54 H23        -6.0660    2.0435    3.3862 H         1 <0>         0.1006
     55 H24       -11.1707   -0.4704    2.5718 H         1 <0>         0.1293
     56 H25       -13.6245   -0.6435    2.5558 H         1 <0>         0.1344
     57 H26       -14.9514    0.7082    0.9865 H         1 <0>         0.1346
     58 H27       -13.8341    2.2427   -0.5781 H         1 <0>         0.1318
@<TRIPOS>BOND
     1    1    2 1
     2    1   35 1
     3    1   36 1
     4    1   37 1
     5    2    3 1
     6    2    9 1
     7    2    4 1
     8    4    5 1
     9    4    6 1
    10    4   14 1
    11    6    7 2
    12    6   13 1
    13    7    8 1
    14    8   12 2
    15    8    9 1
    16    9   10 1
    17   10   11 2
    18   11   12 1
    19   11   38 1
    20   13   39 1
    21   13   40 1
    22   13   41 1
    23   14   15 1
    24   14   42 1
    25   14   43 1
    26   15   16 1
    27   15   44 1
    28   15   45 1
    29   16   17 2
    30   16   18 am
    31   18   23 1
    32   18   19 1
    33   19   20 1
    34   19   46 1
    35   19   47 1
    36   20   21 1
    37   20   48 1
    38   20   49 1
    39   21   22 1
    40   21   24 1
    41   21   50 1
    42   22   23 1
    43   22   51 1
    44   22   52 1
    45   23   53 1
    46   23   54 1
    47   24   33 am
    48   24   25 1
    49   25   30 ar
    50   25   26 ar
    51   26   27 ar
    52   26   55 1
    53   27   28 ar
    54   27   56 1
    55   28   29 ar
    56   28   57 1
    57   29   30 ar
    58   29   58 1
    59   30   31 1
    60   31   32 1
    61   31   33 am
    62   33   34 2
