@<TRIPOS>MOLECULE
ZINC17070870
   45    47     0     0     0
SMALL
USER_CHARGES

@<TRIPOS>ATOM
      1 C1          2.7889   -0.0297    0.0478 C.3       1 <0>        -0.1151
      2 C2          1.9182   -1.2479   -0.1220 C.ar      1 <0>        -0.1161
      3 C3          2.2295   -2.1895   -1.0862 C.ar      1 <0>        -0.0751
      4 C4          1.4337   -3.3067   -1.2448 C.ar      1 <0>        -0.1734
      5 C5          0.3193   -3.4846   -0.4341 C.ar      1 <0>         0.1778
      6 C6          0.0099   -2.5373    0.5334 C.ar      1 <0>        -0.1624
      7 C7          0.8132   -1.4247    0.6901 C.ar      1 <0>        -0.0458
      8 C8          0.4818   -0.3994    1.7437 C.3       1 <0>        -0.1200
      9 N1         -0.4886   -4.6139   -0.5922 N.pl3     1 <0>        -0.6828
     10 C9         -0.2708   -5.4610   -1.6202 C.2       1 <0>         0.3318
     11 C10         0.0291   -6.7897   -1.3708 C.2       1 <0>        -0.3043
     12 C11         0.0348   -7.4779   -0.0713 C.2       1 <0>         0.1488
     13 N2          0.3704   -8.7136   -0.2839 N.2       1 <0>        -0.2495
     14 N3          0.6027   -8.9502   -1.6386 N.am      1 <0>        -0.4070
     15 C12         0.4044   -7.8201   -2.3469 C.2       1 <0>         0.5383
     16 O1          0.5168   -7.6814   -3.5535 O.2       1 <0>        -0.4962
     17 C13         0.9812  -10.1840   -2.1847 C.ar      1 <0>         0.1658
     18 C14         1.1924  -10.3038   -3.5518 C.ar      1 <0>        -0.1229
     19 C15         1.5659  -11.5205   -4.0880 C.ar      1 <0>        -0.1251
     20 C16         1.7294  -12.6207   -3.2631 C.ar      1 <0>         0.0792
     21 C17         1.5193  -12.5034   -1.8994 C.ar      1 <0>        -0.1294
     22 C18         1.1513  -11.2871   -1.3586 C.ar      1 <0>        -0.1041
     23 F1          2.0939  -13.8103   -3.7897 F         1 <0>        -0.1383
     24 C19        -0.2894   -6.8605    1.2647 C.3       1 <0>        -0.0895
     25 C20        -0.3538   -4.9608   -3.0393 C.3       1 <0>        -0.1519
     26 H1          3.5789   -0.2451    0.7672 H         1 <0>         0.0695
     27 H2          3.2334    0.2357   -0.9114 H         1 <0>         0.0659
     28 H3          2.1841    0.8015    0.4103 H         1 <0>         0.0684
     29 H4          3.0958   -2.0506   -1.7159 H         1 <0>         0.1272
     30 H5          1.6769   -4.0412   -1.9982 H         1 <0>         0.1254
     31 H6         -0.8557   -2.6723    1.1649 H         1 <0>         0.1272
     32 H7         -0.1781    0.3573    1.3194 H         1 <0>         0.0741
     33 H8         -0.0162   -0.8873    2.5816 H         1 <0>         0.0682
     34 H9          1.4001    0.0734    2.0921 H         1 <0>         0.0723
     35 H10        -1.2060   -4.7889    0.0368 H         1 <0>         0.4181
     36 H11         1.0643   -9.4461   -4.1955 H         1 <0>         0.1624
     37 H12         1.7302  -11.6140   -5.1513 H         1 <0>         0.1434
     38 H13         1.6470  -13.3628   -1.2578 H         1 <0>         0.1427
     39 H14         0.9915  -11.1951   -0.2944 H         1 <0>         0.1447
     40 H15        -1.3626   -6.9247    1.4438 H         1 <0>         0.0908
     41 H16         0.2428   -7.3958    2.0510 H         1 <0>         0.0895
     42 H17         0.0172   -5.8145    1.2656 H         1 <0>         0.0881
     43 H18         0.6443   -4.7016   -3.3922 H         1 <0>         0.0993
     44 H19        -0.7730   -5.7404   -3.6754 H         1 <0>         0.1032
     45 H20        -0.9929   -4.0786   -3.0768 H         1 <0>         0.0866
@<TRIPOS>BOND
     1    1    2 1
     2    1   26 1
     3    1   27 1
     4    1   28 1
     5    2    7 ar
     6    2    3 ar
     7    3    4 ar
     8    3   29 1
     9    4    5 ar
    10    4   30 1
    11    5    6 ar
    12    5    9 1
    13    6    7 ar
    14    6   31 1
    15    7    8 1
    16    8   32 1
    17    8   33 1
    18    8   34 1
    19    9   10 1
    20    9   35 1
    21   10   11 2
    22   10   25 1
    23   11   15 1
    24   11   12 1
    25   12   13 2
    26   12   24 1
    27   13   14 1
    28   14   15 am
    29   14   17 1
    30   15   16 2
    31   17   22 ar
    32   17   18 ar
    33   18   19 ar
    34   18   36 1
    35   19   20 ar
    36   19   37 1
    37   20   21 ar
    38   20   23 1
    39   21   22 ar
    40   21   38 1
    41   22   39 1
    42   24   40 1
    43   24   41 1
    44   24   42 1
    45   25   43 1
    46   25   44 1
    47   25   45 1
