@<TRIPOS>MOLECULE
ZINC24091655
   52    55     0     0     0
SMALL
USER_CHARGES
[2-(2,2-dimethyl-3-oxo-4H-quinoxalin-1-yl)-2-oxo-ethyl] 2-[(2R)-3-oxo-4H-1,4-benzoxazin-2-yl]acetate
@<TRIPOS>ATOM
      1 C1         -5.5493    2.8869   -8.2784 C.3       1 <0>        -0.1465
      2 C2         -6.4981    1.9775   -7.4950 C.3       1 <0>         0.1589
      3 C3         -7.8880    2.0996   -8.0549 C.2       1 <0>         0.5205
      4 O1         -8.0391    2.3351   -9.2351 O.2       1 <0>        -0.5038
      5 N1         -8.9667    1.9554   -7.2622 N.am      1 <0>        -0.6715
      6 C4         -8.8205    1.7323   -5.8888 C.ar      1 <0>         0.1419
      7 C5         -9.8918    1.3016   -5.1225 C.ar      1 <0>        -0.1259
      8 C6         -9.7274    1.0924   -3.7656 C.ar      1 <0>        -0.0975
      9 C7         -8.4992    1.3103   -3.1684 C.ar      1 <0>        -0.1071
     10 C8         -7.4237    1.7389   -3.9258 C.ar      1 <0>        -0.1422
     11 C9         -7.5812    1.9487   -5.2840 C.ar      1 <0>         0.1007
     12 N2         -6.5084    2.3790   -6.0804 N.am      1 <0>        -0.5469
     13 C10        -5.5223    3.1405   -5.5663 C.2       1 <0>         0.5258
     14 O2         -4.6617    3.5901   -6.2933 O.2       1 <0>        -0.4801
     15 C11        -5.4889    3.4333   -4.0884 C.3       1 <0>         0.0411
     16 O3         -4.5049    4.4673   -3.8220 O.3       1 <0>        -0.3343
     17 C12        -4.3504    4.8466   -2.5437 C.2       1 <0>         0.4730
     18 O4         -5.0153    4.3317   -1.6762 O.2       1 <0>        -0.4840
     19 C13        -3.3476    5.9146   -2.1906 C.3       1 <0>        -0.1398
     20 C14        -3.3707    6.1565   -0.6800 C.3       1 <0>         0.0930
     21 H1         -4.3894    6.3518   -0.3137 H         1 <0>         0.1618
     22 C15        -2.4610    7.3109   -0.3425 C.2       1 <0>         0.5005
     23 O5         -2.9064    8.4368   -0.2696 O.2       1 <0>        -0.5009
     24 N3         -1.1488    7.0850   -0.1225 N.am      1 <0>        -0.6684
     25 C16        -0.6779    5.7653   -0.0910 C.ar      1 <0>         0.0957
     26 C17         0.6816    5.5004   -0.1024 C.ar      1 <0>        -0.1233
     27 C18         1.1291    4.1925   -0.0729 C.ar      1 <0>        -0.1081
     28 C19         0.2228    3.1488   -0.0325 C.ar      1 <0>        -0.1102
     29 C20        -1.1359    3.4064   -0.0209 C.ar      1 <0>        -0.1054
     30 C21        -1.5911    4.7138   -0.0389 C.ar      1 <0>         0.0660
     31 O6         -2.9243    4.9796   -0.0028 O.3       1 <0>        -0.2844
     32 C22        -6.0308    0.5253   -7.6115 C.3       1 <0>        -0.1577
     33 H2         -5.5426    2.5855   -9.3363 H         1 <0>         0.0724
     34 H3         -4.5334    2.7994   -7.8657 H         1 <0>         0.1123
     35 H4         -5.8898    3.9297   -8.1964 H         1 <0>         0.0642
     36 H5         -9.9773    2.0126   -7.6928 H         1 <0>         0.4416
     37 H6        -10.8530    1.1300   -5.5840 H         1 <0>         0.1375
     38 H7        -10.5627    0.7567   -3.1690 H         1 <0>         0.1353
     39 H8         -8.3792    1.1453   -2.1078 H         1 <0>         0.1370
     40 H9         -6.4649    1.9089   -3.4586 H         1 <0>         0.1480
     41 H10        -6.4807    3.7777   -3.7604 H         1 <0>         0.1136
     42 H11        -5.2181    2.5193   -3.5395 H         1 <0>         0.1200
     43 H12        -2.3420    5.5882   -2.4943 H         1 <0>         0.1212
     44 H13        -3.6045    6.8467   -2.7152 H         1 <0>         0.1350
     45 H14        -0.4629    7.9314    0.0294 H         1 <0>         0.4452
     46 H15         1.3910    6.3142   -0.1347 H         1 <0>         0.1344
     47 H16         2.1890    3.9855   -0.0818 H         1 <0>         0.1335
     48 H17         0.5773    2.1288   -0.0145 H         1 <0>         0.1349
     49 H18        -1.8409    2.5887    0.0060 H         1 <0>         0.1386
     50 H19        -6.7145   -0.1262   -7.0475 H         1 <0>         0.0666
     51 H20        -5.0144    0.4331   -7.2010 H         1 <0>         0.0813
     52 H21        -6.0275    0.2250   -8.6697 H         1 <0>         0.0863
@<TRIPOS>BOND
     1    1    2 1
     2    1   33 1
     3    1   34 1
     4    1   35 1
     5    2   12 1
     6    2    3 1
     7    2   32 1
     8    3    4 2
     9    3    5 am
    10    5    6 1
    11    5   36 1
    12    6   11 ar
    13    6    7 ar
    14    7    8 ar
    15    7   37 1
    16    8    9 ar
    17    8   38 1
    18    9   10 ar
    19    9   39 1
    20   10   11 ar
    21   10   40 1
    22   11   12 1
    23   12   13 am
    24   13   14 2
    25   13   15 1
    26   15   16 1
    27   15   41 1
    28   15   42 1
    29   16   17 1
    30   17   18 2
    31   17   19 1
    32   19   20 1
    33   19   43 1
    34   19   44 1
    35   20   21 1
    36   20   31 1
    37   20   22 1
    38   22   23 2
    39   22   24 am
    40   24   25 1
    41   24   45 1
    42   25   30 ar
    43   25   26 ar
    44   26   27 ar
    45   26   46 1
    46   27   28 ar
    47   27   47 1
    48   28   29 ar
    49   28   48 1
    50   29   30 ar
    51   29   49 1
    52   30   31 1
    53   32   50 1
    54   32   51 1
    55   32   52 1
