@<TRIPOS>MOLECULE
ZINC09647790
   59    62     0     0     0
SMALL
USER_CHARGES
2-(4-benzofuran-2-yl-4-methyl-2,5-dioxo-imidazolidin-1-yl)-N-(1,1-dioxothiolan-3-yl)-N-sec-butyl-acetamide
@<TRIPOS>ATOM
      1 C1          2.1988    1.0094    1.1682 C.3       1 <0>        -0.1584
      2 C2          1.4227    1.6154   -0.0028 C.3       1 <0>        -0.1373
      3 C3         -0.0127    1.0858    0.0080 C.3       1 <0>         0.1250
      4 H1          0.0021   -0.0041    0.0020 H         1 <0>         0.0966
      5 C4         -0.7527    1.5927   -1.2315 C.3       1 <0>        -0.1689
      6 N1         -0.6984    1.5583    1.2133 N.am      1 <0>        -0.5914
      7 C5         -0.8496    2.9954    1.4543 C.3       1 <0>         0.1543
      8 H2         -0.3892    3.5497    0.6365 H         1 <0>         0.1149
      9 C6         -2.3449    3.3460    1.5290 C.3       1 <0>        -0.1489
     10 C7         -2.4762    4.7906    2.0905 C.3       1 <0>        -0.5710
     11 S1         -1.1842    4.7606    3.4038 S.o2      1 <0>         2.3730
     12 O1         -1.7844    4.3794    4.6341 O.2       1 <0>        -0.9239
     13 O2         -0.4284    5.9620    3.3363 O.2       1 <0>        -0.9379
     14 C8         -0.1528    3.3694    2.7848 C.3       1 <0>        -0.5995
     15 C9         -1.1902    0.6708    2.1005 C.2       1 <0>         0.5055
     16 O3         -1.7579    1.0619    3.0983 O.2       1 <0>        -0.5140
     17 C10        -1.0347   -0.8075    1.8526 C.3       1 <0>         0.0983
     18 N2         -1.6486   -1.5545    2.9532 N.am      1 <0>        -0.5618
     19 C11        -2.9365   -1.9506    2.9737 C.2       1 <0>         0.5404
     20 O4         -3.7743   -1.7622    2.1179 O.2       1 <0>        -0.4379
     21 C12        -3.1200   -2.6800    4.2898 C.3       1 <0>         0.2085
     22 N3         -1.7893   -2.6029    4.9169 N.am      1 <0>        -0.7082
     23 C13        -0.9983   -1.9326    4.0597 C.2       1 <0>         0.7147
     24 O5          0.1750   -1.6942    4.2685 O.2       1 <0>        -0.5263
     25 C14        -4.1649   -1.9734    5.1558 C.3       1 <0>        -0.1471
     26 C15        -3.5109   -4.1156    4.0504 C.2       1 <0>         0.0160
     27 C16        -3.2100   -5.1382    4.8622 C.2       1 <0>        -0.1656
     28 C17        -3.7858   -6.3370    4.2411 C.ar      1 <0>        -0.1348
     29 C18        -3.8218   -7.6888    4.5796 C.ar      1 <0>        -0.0657
     30 C19        -4.4622   -8.5761    3.7597 C.ar      1 <0>        -0.1342
     31 C20        -5.0740   -8.1394    2.5935 C.ar      1 <0>        -0.0859
     32 C21        -5.0485   -6.8067    2.2422 C.ar      1 <0>        -0.1067
     33 C22        -4.4039   -5.8885    3.0618 C.ar      1 <0>         0.0609
     34 O6         -4.2172   -4.5551    2.9941 O.3       1 <0>        -0.1769
     35 H3          1.7165    1.2860    2.1057 H         1 <0>         0.0576
     36 H4          2.2113   -0.0764    1.0727 H         1 <0>         0.0558
     37 H5          3.2213    1.3866    1.1604 H         1 <0>         0.0606
     38 H6          1.9050    1.3387   -0.9404 H         1 <0>         0.0818
     39 H7          1.4101    2.7011    0.0927 H         1 <0>         0.0709
     40 H8         -0.2425    1.2411   -2.1283 H         1 <0>         0.0762
     41 H9         -1.7753    1.2154   -1.2238 H         1 <0>         0.0651
     42 H10        -0.7675    2.6825   -1.2255 H         1 <0>         0.0643
     43 H11        -2.7848    3.2968    0.5329 H         1 <0>         0.1020
     44 H12        -2.8545    2.6460    2.1911 H         1 <0>         0.1078
     45 H13        -3.4658    4.9601    2.5149 H         1 <0>         0.1441
     46 H14        -2.2451    5.5335    1.3271 H         1 <0>         0.1401
     47 H15        -0.1754    2.5316    3.4817 H         1 <0>         0.1528
     48 H16         0.8723    3.6941    2.6063 H         1 <0>         0.1435
     49 H17        -1.5250   -1.0724    0.9158 H         1 <0>         0.1288
     50 H18         0.0248   -1.0561    1.7911 H         1 <0>         0.1316
     51 H19        -1.5326   -2.9671    5.7785 H         1 <0>         0.4452
     52 H20        -5.1217   -1.9618    4.6338 H         1 <0>         0.0910
     53 H21        -4.2731   -2.5051    6.1011 H         1 <0>         0.0887
     54 H22        -3.8442   -0.9498    5.3493 H         1 <0>         0.0881
     55 H23        -2.6552   -5.0901    5.7876 H         1 <0>         0.1617
     56 H24        -3.3464   -8.0337    5.4860 H         1 <0>         0.1303
     57 H25        -4.4916   -9.6236    4.0213 H         1 <0>         0.1327
     58 H26        -5.5758   -8.8510    1.9545 H         1 <0>         0.1384
     59 H27        -5.5279   -6.4773    1.3323 H         1 <0>         0.1352
@<TRIPOS>BOND
     1    1    2 1
     2    1   35 1
     3    1   36 1
     4    1   37 1
     5    2    3 1
     6    2   38 1
     7    2   39 1
     8    3    4 1
     9    3    5 1
    10    3    6 1
    11    5   40 1
    12    5   41 1
    13    5   42 1
    14    6    7 1
    15    6   15 am
    16    7    8 1
    17    7   14 1
    18    7    9 1
    19    9   10 1
    20    9   43 1
    21    9   44 1
    22   10   11 1
    23   10   45 1
    24   10   46 1
    25   11   12 2
    26   11   13 2
    27   11   14 1
    28   14   47 1
    29   14   48 1
    30   15   16 2
    31   15   17 1
    32   17   18 1
    33   17   49 1
    34   17   50 1
    35   18   23 am
    36   18   19 am
    37   19   20 2
    38   19   21 1
    39   21   22 1
    40   21   25 1
    41   21   26 1
    42   22   23 am
    43   22   51 1
    44   23   24 2
    45   25   52 1
    46   25   53 1
    47   25   54 1
    48   26   34 1
    49   26   27 2
    50   27   28 1
    51   27   55 1
    52   28   33 ar
    53   28   29 ar
    54   29   30 ar
    55   29   56 1
    56   30   31 ar
    57   30   57 1
    58   31   32 ar
    59   31   58 1
    60   32   33 ar
    61   32   59 1
    62   33   34 1
