@<TRIPOS>MOLECULE
ZINC06788812
   39    41     0     0     0
SMALL
USER_CHARGES

@<TRIPOS>ATOM
      1 C1          0.4765    1.2964    0.3046 C.3       1 <0>        -0.1210
      2 C2          0.4161   -0.2045    0.1842 C.ar      1 <0>        -0.0775
      3 C3          0.2510   -0.7909   -1.0571 C.ar      1 <0>        -0.1308
      4 C4          0.1953   -2.1719   -1.1695 C.ar      1 <0>         0.1373
      5 C5          0.3059   -2.9655   -0.0295 C.ar      1 <0>         0.1195
      6 C6          0.4710   -2.3716    1.2104 C.ar      1 <0>        -0.1750
      7 C7          0.5315   -0.9927    1.3149 C.ar      1 <0>        -0.0129
      8 Cl1         0.7463   -0.2506    2.8695 Cl        1 <0>        -0.0571
      9 O1          0.2514   -4.3204   -0.1343 O.3       1 <0>        -0.3086
     10 C8          0.3717   -5.0702    1.0762 C.3       1 <0>         0.0237
     11 N1          0.0277   -2.7676   -2.4257 N.pl3     1 <0>        -1.0442
     12 S1          0.7288   -2.0893   -3.7639 S.o2      1 <0>         2.6951
     13 O2          0.4922   -2.9827   -4.8433 O.2       1 <0>        -0.9444
     14 O3          0.3143   -0.7304   -3.7948 O.2       1 <0>        -0.9449
     15 C9          2.4696   -2.0787   -3.4912 C.ar      1 <0>        -0.7001
     16 C10         3.0683   -0.9949   -2.8750 C.ar      1 <0>         0.0208
     17 C11         4.4305   -0.9803   -2.6586 C.ar      1 <0>        -0.1571
     18 C12         5.2142   -2.0606   -3.0600 C.ar      1 <0>         0.2054
     19 C13         4.6011   -3.1433   -3.6774 C.ar      1 <0>        -0.1651
     20 C14         3.2405   -3.1574   -3.8879 C.ar      1 <0>         0.0409
     21 C15         5.6994   -4.1342   -3.9872 C.3       1 <0>        -0.1155
     22 C16         6.9553   -3.4649   -3.4708 C.2       1 <0>         0.5302
     23 O4          8.0811   -3.9141   -3.5144 O.2       1 <0>        -0.4885
     24 N2          6.5882   -2.2798   -2.9547 N.am      1 <0>        -0.6606
     25 H1          1.5106    1.6274    0.2080 H         1 <0>         0.0782
     26 H2         -0.1249    1.7487   -0.4840 H         1 <0>         0.0776
     27 H3          0.0876    1.5989    1.2769 H         1 <0>         0.0761
     28 H4          0.1652   -0.1733   -1.9390 H         1 <0>         0.1776
     29 H5          0.5570   -2.9845    2.0955 H         1 <0>         0.1452
     30 H6          0.3120   -6.1351    0.8515 H         1 <0>         0.1058
     31 H7          1.3309   -4.8511    1.5454 H         1 <0>         0.0587
     32 H8         -0.4358   -4.7962    1.7551 H         1 <0>         0.0597
     33 H9         -0.4990   -3.5775   -2.5120 H         1 <0>         0.4328
     34 H10         2.4658   -0.1550   -2.5618 H         1 <0>         0.1493
     35 H11         4.8907   -0.1300   -2.1774 H         1 <0>         0.1406
     36 H12         2.7761   -4.0073   -4.3657 H         1 <0>         0.1492
     37 H13         5.5246   -5.0741   -3.4637 H         1 <0>         0.1301
     38 H14         5.7703   -4.3020   -5.0619 H         1 <0>         0.1312
     39 H15         7.2072   -1.6491   -2.5548 H         1 <0>         0.4186
@<TRIPOS>BOND
     1    1    2 1
     2    1   25 1
     3    1   26 1
     4    1   27 1
     5    2    7 ar
     6    2    3 ar
     7    3    4 ar
     8    3   28 1
     9    4    5 ar
    10    4   11 1
    11    5    6 ar
    12    5    9 1
    13    6    7 ar
    14    6   29 1
    15    7    8 1
    16    9   10 1
    17   10   30 1
    18   10   31 1
    19   10   32 1
    20   11   12 1
    21   11   33 1
    22   12   13 2
    23   12   14 2
    24   12   15 1
    25   15   20 ar
    26   15   16 ar
    27   16   17 ar
    28   16   34 1
    29   17   18 ar
    30   17   35 1
    31   18   24 1
    32   18   19 ar
    33   19   20 ar
    34   19   21 1
    35   20   36 1
    36   21   22 1
    37   21   37 1
    38   21   38 1
    39   22   23 2
    40   22   24 am
    41   24   39 1
