@<TRIPOS>MOLECULE
ZINC38571099
   60    61     0     0     0
SMALL
USER_CHARGES

@<TRIPOS>ATOM
      1 C1         -0.1969    2.1098    0.7332 C.3       1 <0>        -0.1813
      2 C2          0.0024    0.8136   -0.0549 C.3       1 <0>         0.1064
      3 H1         -0.9662    0.3504   -0.2432 H         1 <0>         0.0650
      4 C3          0.8778   -0.1456    0.7541 C.3       1 <0>         0.0795
      5 H2          0.3520   -0.4386    1.6629 H         1 <0>         0.0925
      6 C4          1.1756   -1.3710   -0.0711 C.2       1 <0>         0.4995
      7 O1          2.1620   -1.3988   -0.7871 O.co2     1 <0>        -0.6708
      8 O2          0.4301   -2.3345   -0.0226 O.co2     1 <0>        -0.6993
      9 N1          2.1331    0.5208    1.1094 N.am      1 <0>        -0.6772
     10 C5          2.8266    0.1182    2.1927 C.2       1 <0>         0.5097
     11 O3          2.3674   -0.7325    2.9250 O.2       1 <0>        -0.5481
     12 C6          4.1727    0.7250    2.4939 C.3       1 <0>         0.1521
     13 H3          4.1813    1.7670    2.1740 H         1 <0>         0.1067
     14 C7          5.2598   -0.0476    1.7441 C.3       1 <0>        -0.0950
     15 C8          4.9959    0.0317    0.2391 C.3       1 <0>        -0.1675
     16 C9          6.6271    0.5645    2.0551 C.3       1 <0>        -0.1364
     17 N2          4.4289    0.6543    3.9346 N.am      1 <0>        -0.7182
     18 C10         5.2713    1.5330    4.5132 C.2       1 <0>         0.7215
     19 O4          5.7464    2.4410    3.8587 O.2       1 <0>        -0.5574
     20 N3          5.5872    1.4052    5.8171 N.am      1 <0>        -0.5626
     21 C11         6.3700    2.3641    6.4781 C.ar      1 <0>         0.1284
     22 C12         7.3052    3.1219    5.8009 C.ar      1 <0>        -0.1110
     23 C13         8.0621    4.0541    6.4896 C.ar      1 <0>        -0.1047
     24 C14         7.8856    4.2284    7.8510 C.ar      1 <0>        -0.1296
     25 C15         6.9521    3.4779    8.5386 C.ar      1 <0>        -0.0809
     26 C16         6.1823    2.5386    7.8569 C.ar      1 <0>         0.0831
     27 N4          5.2404    1.7908    8.5115 N.2       1 <0>        -0.5483
     28 C17         4.7177    0.7332    7.9783 C.2       1 <0>         0.3554
     29 C18         5.1208    0.2567    6.6113 C.3       1 <0>         0.1592
     30 H4          4.2645   -0.2040    6.1187 H         1 <0>         0.1201
     31 C19         6.2502   -0.7671    6.7434 C.3       1 <0>        -0.0973
     32 C20         5.7634   -1.9597    7.5690 C.3       1 <0>        -0.1476
     33 C21         6.6689   -1.2467    5.3522 C.3       1 <0>        -0.1509
     34 O5          3.7840    0.0430    8.6657 O.3       1 <0>        -0.4524
     35 O6          0.6406    1.1061   -1.2995 O.3       1 <0>        -0.5444
     36 H5          0.7717    2.5730    0.9215 H         1 <0>         0.0600
     37 H6         -0.8205    2.7932    0.1569 H         1 <0>         0.0543
     38 H7         -0.6837    1.8867    1.6826 H         1 <0>         0.0625
     39 H8          2.4651    1.2518    0.5651 H         1 <0>         0.3995
     40 H9          5.2482   -1.0906    2.0605 H         1 <0>         0.0755
     41 H10         4.9188    1.0766   -0.0617 H         1 <0>         0.0501
     42 H11         5.8170   -0.4417   -0.2992 H         1 <0>         0.0561
     43 H12         4.0639   -0.4832    0.0060 H         1 <0>         0.1033
     44 H13         6.8151    0.5080    3.1272 H         1 <0>         0.0489
     45 H14         7.4016    0.0141    1.5209 H         1 <0>         0.0507
     46 H15         6.6388    1.6075    1.7386 H         1 <0>         0.0633
     47 H16         3.9922   -0.0249    4.4721 H         1 <0>         0.4050
     48 H17         7.4456    2.9875    4.7386 H         1 <0>         0.1523
     49 H18         8.7940    4.6478    5.9621 H         1 <0>         0.1277
     50 H19         8.4825    4.9566    8.3799 H         1 <0>         0.1266
     51 H20         6.8199    3.6186    9.6012 H         1 <0>         0.1314
     52 H21         7.1031   -0.3050    7.2404 H         1 <0>         0.0778
     53 H22         4.9105   -2.4218    7.0719 H         1 <0>         0.0661
     54 H23         6.5680   -2.6890    7.6630 H         1 <0>         0.0645
     55 H24         5.4651   -1.6180    8.5601 H         1 <0>         0.0619
     56 H25         7.0157   -0.3971    4.7640 H         1 <0>         0.0600
     57 H26         7.4735   -1.9761    5.4463 H         1 <0>         0.0658
     58 H27         5.8160   -1.7088    4.8552 H         1 <0>         0.0647
     59 H28         3.5790    0.4162    9.5339 H         1 <0>         0.4097
     60 H29         0.1406    1.7101   -1.8655 H         1 <0>         0.3637
@<TRIPOS>BOND
     1    1    2 1
     2    1   36 1
     3    1   37 1
     4    1   38 1
     5    2    3 1
     6    2    4 1
     7    2   35 1
     8    4    5 1
     9    4    6 1
    10    4    9 1
    11    6    7 2
    12    6    8 1
    13    9   10 am
    14    9   39 1
    15   10   11 2
    16   10   12 1
    17   12   13 1
    18   12   14 1
    19   12   17 1
    20   14   15 1
    21   14   16 1
    22   14   40 1
    23   15   41 1
    24   15   42 1
    25   15   43 1
    26   16   44 1
    27   16   45 1
    28   16   46 1
    29   17   18 am
    30   17   47 1
    31   18   19 2
    32   18   20 am
    33   20   29 1
    34   20   21 1
    35   21   26 ar
    36   21   22 ar
    37   22   23 ar
    38   22   48 1
    39   23   24 ar
    40   23   49 1
    41   24   25 ar
    42   24   50 1
    43   25   26 ar
    44   25   51 1
    45   26   27 1
    46   27   28 2
    47   28   29 1
    48   28   34 1
    49   29   30 1
    50   29   31 1
    51   31   32 1
    52   31   33 1
    53   31   52 1
    54   32   53 1
    55   32   54 1
    56   32   55 1
    57   33   56 1
    58   33   57 1
    59   33   58 1
    60   34   59 1
    61   35   60 1
