@<TRIPOS>MOLECULE
ZINC08734486
   37    39     0     0     0
SMALL
USER_CHARGES
(2R)-2-[(5-amino-1,3,4-thiadiazol-2-yl)sulfanyl]-1-[(2R)-2-methylindolin-1-yl]propan-1-one
@<TRIPOS>ATOM
      1 C1         -6.4225   -2.2632   -1.5062 C.3       1 <0>        -0.1718
      2 C2         -6.5015   -1.0738   -0.5470 C.3       1 <0>         0.1331
      3 H1         -6.7564   -1.4577    0.4518 H         1 <0>         0.0955
      4 C3         -7.5031   -0.0317   -1.0710 C.3       1 <0>        -0.0833
      5 C4         -6.6775    1.2174   -1.2820 C.ar      1 <0>        -0.1260
      6 C5         -7.0331    2.4722   -1.7387 C.ar      1 <0>        -0.0718
      7 C6         -6.0835    3.4725   -1.8305 C.ar      1 <0>        -0.1373
      8 C7         -4.7718    3.2101   -1.4793 C.ar      1 <0>        -0.0819
      9 C8         -4.4114    1.9584   -1.0284 C.ar      1 <0>        -0.1691
     10 C9         -5.3669    0.9456   -0.9235 C.ar      1 <0>         0.1374
     11 N1         -5.2138   -0.3765   -0.4947 N.am      1 <0>        -0.5421
     12 C10        -4.0530   -0.9271   -0.0874 C.2       1 <0>         0.5479
     13 O1         -4.0124   -2.1002    0.2179 O.2       1 <0>        -0.4991
     14 C11        -2.8054   -0.0851   -0.0113 C.3       1 <0>        -0.1475
     15 H2         -2.8736    0.5668   -0.8947 H         1 <0>         0.1467
     16 C12        -2.9018    0.8622    1.1862 C.3       1 <0>        -0.1614
     17 S1         -1.3596   -1.1629    0.1850 S.3       1 <0>         0.1372
     18 C13         0.0100   -0.0569    0.1091 C.2       1 <0>         0.0239
     19 N2          0.0193    1.2525   -0.0514 N.2       1 <0>        -0.2722
     20 N3          1.2164    1.9297   -0.0818 N.2       1 <0>        -0.3852
     21 C14         2.3488    1.2672    0.0495 C.2       1 <0>         0.3637
     22 S2          1.7571   -0.4087    0.2293 S.3       1 <0>        -0.0106
     23 N4          3.6541    1.7449    0.0477 N.pl3     1 <0>        -0.8142
     24 H3         -7.3951   -2.7762   -1.5350 H         1 <0>         0.0765
     25 H4         -5.6487   -2.9636   -1.1588 H         1 <0>         0.0776
     26 H5         -6.1669   -1.9049   -2.5143 H         1 <0>         0.0605
     27 H6         -7.9489   -0.3914   -2.0101 H         1 <0>         0.0971
     28 H7         -8.2959    0.1227   -0.3243 H         1 <0>         0.0950
     29 H8         -8.0580    2.6757   -2.0117 H         1 <0>         0.1286
     30 H9         -6.3635    4.4541   -2.1832 H         1 <0>         0.1300
     31 H10        -4.0275    3.9886   -1.5583 H         1 <0>         0.1326
     32 H11        -3.3855    1.7600   -0.7554 H         1 <0>         0.1460
     33 H12        -1.9912    1.4768    1.2418 H         1 <0>         0.0909
     34 H13        -3.0050    0.2751    2.1107 H         1 <0>         0.0757
     35 H14        -3.7786    1.5157    1.0671 H         1 <0>         0.0830
     36 H15         4.4954    1.0469    0.1706 H         1 <0>         0.4473
     37 H16         3.8458    2.8209   -0.0767 H         1 <0>         0.4473
@<TRIPOS>BOND
     1    1    2 1
     2    1   24 1
     3    1   25 1
     4    1   26 1
     5    2    3 1
     6    2   11 1
     7    2    4 1
     8    4    5 1
     9    4   27 1
    10    4   28 1
    11    5   10 ar
    12    5    6 ar
    13    6    7 ar
    14    6   29 1
    15    7    8 ar
    16    7   30 1
    17    8    9 ar
    18    8   31 1
    19    9   10 ar
    20    9   32 1
    21   10   11 1
    22   11   12 am
    23   12   13 2
    24   12   14 1
    25   14   15 1
    26   14   16 1
    27   14   17 1
    28   16   33 1
    29   16   34 1
    30   16   35 1
    31   17   18 1
    32   18   22 1
    33   18   19 2
    34   19   20 1
    35   20   21 2
    36   21   22 1
    37   21   23 1
    38   23   36 1
    39   23   37 1
