@<TRIPOS>MOLECULE
ZINC04186994
   49    52     0     0     0
SMALL
USER_CHARGES
methyl methyl-(5-methyl-2-furyl)-oxo-BLAHcarboxylate
@<TRIPOS>ATOM
      1 C1         -7.9166    1.1107    1.4093 C.3       1 <0>        -0.0714
      2 C2         -6.5133    1.0160    1.9503 C.2       1 <0>        -0.0212
      3 C3         -5.7045    2.0550    2.2256 C.2       1 <0>        -0.2152
      4 C4         -4.4911    1.5130    2.7080 C.2       1 <0>        -0.1798
      5 C5         -4.6309    0.1752    2.6986 C.2       1 <0>        -0.0267
      6 O1         -5.8556   -0.1203    2.2333 O.3       1 <0>        -0.1604
      7 C6         -3.5878   -0.8229    3.1308 C.3       1 <0>         0.3266
      8 H1         -2.8438   -0.3047    3.7358 H         1 <0>         0.1141
      9 C7         -2.9071   -1.3707    1.8976 C.2       1 <0>        -0.3031
     10 C8         -3.0396   -2.6147    1.4120 C.2       1 <0>         0.2735
     11 C9         -2.3300   -3.0157    0.1280 C.3       1 <0>        -0.1076
     12 C10        -0.9956   -2.2794    0.0213 C.3       1 <0>        -0.0671
     13 H2         -0.3682   -2.5258    0.8778 H         1 <0>         0.0944
     14 C11        -1.2926   -0.7753    0.0102 C.3       1 <0>        -0.1156
     15 H3         -1.8229   -0.5463   -0.8061 H         1 <0>         0.1241
     16 C12        -2.0745   -0.4327    1.2426 C.2       1 <0>         0.4058
     17 O2         -1.9905    0.6921    1.6954 O.2       1 <0>        -0.4417
     18 C13         0.0021   -0.0041    0.0020 C.2       1 <0>         0.4784
     19 O3          1.0565   -0.5939   -0.0112 O.2       1 <0>        -0.4978
     20 O4         -0.0161    1.3381    0.0094 O.3       1 <0>        -0.3372
     21 C14         1.2685    2.0148    0.0008 C.3       1 <0>         0.0349
     22 C15        -0.2859   -2.6774   -1.2744 C.3       1 <0>        -0.1572
     23 N1         -3.7897   -3.5988    1.9711 N.pl3     1 <0>        -0.6838
     24 C16        -5.0992   -3.4415    2.4149 C.ar      1 <0>         0.1185
     25 C17        -6.1568   -4.1427    1.8639 C.ar      1 <0>        -0.1133
     26 C18        -7.4230   -3.9968    2.4055 C.ar      1 <0>        -0.1183
     27 C19        -7.6260   -3.1565    3.4850 C.ar      1 <0>        -0.1078
     28 C20        -6.5725   -2.4381    4.0224 C.ar      1 <0>        -0.1146
     29 C21        -5.3065   -2.5678    3.4717 C.ar      1 <0>         0.1715
     30 N2         -4.2292   -1.8280    3.9516 N.pl3     1 <0>        -0.7682
     31 H4         -7.8873    1.1015    0.3197 H         1 <0>         0.0771
     32 H5         -8.5009    0.2617    1.7642 H         1 <0>         0.0732
     33 H6         -8.3766    2.0373    1.7525 H         1 <0>         0.0858
     34 H7         -5.9376    3.1023    2.1022 H         1 <0>         0.1430
     35 H8         -3.6190    2.0669    3.0230 H         1 <0>         0.1481
     36 H9         -2.1510   -4.0909    0.1337 H         1 <0>         0.0960
     37 H10        -2.9552   -2.7582   -0.7270 H         1 <0>         0.1012
     38 H11         1.1110    3.0934    0.0081 H         1 <0>         0.1032
     39 H12         1.8379    1.7248    0.8838 H         1 <0>         0.0636
     40 H13         1.8209    1.7343   -0.8960 H         1 <0>         0.0629
     41 H14         0.6504   -2.1259   -1.3600 H         1 <0>         0.0798
     42 H15        -0.0776   -3.7472   -1.2607 H         1 <0>         0.0659
     43 H16        -0.9250   -2.4426   -2.1256 H         1 <0>         0.0567
     44 H17        -3.3836   -4.4744    2.0681 H         1 <0>         0.4082
     45 H18        -5.9967   -4.7969    1.0197 H         1 <0>         0.1264
     46 H19        -8.2548   -4.5408    1.9831 H         1 <0>         0.1262
     47 H20        -8.6134   -3.0607    3.9117 H         1 <0>         0.1238
     48 H21        -6.7351   -1.7813    4.8642 H         1 <0>         0.1232
     49 H22        -3.9032   -1.9885    4.8510 H         1 <0>         0.4019
@<TRIPOS>BOND
     1    1    2 1
     2    1   31 1
     3    1   32 1
     4    1   33 1
     5    2    6 1
     6    2    3 2
     7    3    4 1
     8    3   34 1
     9    4    5 2
    10    4   35 1
    11    5    6 1
    12    5    7 1
    13    7    8 1
    14    7   30 1
    15    7    9 1
    16    9   16 1
    17    9   10 2
    18   10   11 1
    19   10   23 1
    20   11   12 1
    21   11   36 1
    22   11   37 1
    23   12   13 1
    24   12   14 1
    25   12   22 1
    26   14   15 1
    27   14   16 1
    28   14   18 1
    29   16   17 2
    30   18   19 2
    31   18   20 1
    32   20   21 1
    33   21   38 1
    34   21   39 1
    35   21   40 1
    36   22   41 1
    37   22   42 1
    38   22   43 1
    39   23   24 1
    40   23   44 1
    41   24   29 ar
    42   24   25 ar
    43   25   26 ar
    44   25   45 1
    45   26   27 ar
    46   26   46 1
    47   27   28 ar
    48   27   47 1
    49   28   29 ar
    50   28   48 1
    51   29   30 1
    52   30   49 1
