@<TRIPOS>MOLECULE
ZINC32124085
   55    57     0     0     0
SMALL
USER_CHARGES

@<TRIPOS>ATOM
      1 C1          3.1090    1.6875    3.1574 C.3       1 <0>         0.0238
      2 O1          3.2421    0.2673    3.2447 O.3       1 <0>        -0.3153
      3 C2          2.2587   -0.4805    2.6786 C.ar      1 <0>         0.1367
      4 C3          1.1904    0.1398    2.0468 C.ar      1 <0>        -0.1882
      5 C4          0.1923   -0.6225    1.4718 C.ar      1 <0>        -0.0671
      6 C5          0.2573   -2.0028    1.5254 C.ar      1 <0>        -0.1304
      7 C6          1.3204   -2.6233    2.1546 C.ar      1 <0>        -0.0878
      8 C7          2.3241   -1.8652    2.7264 C.ar      1 <0>        -0.1387
      9 C8          1.3877   -4.1277    2.2116 C.3       1 <0>         0.2659
     10 H1          0.5620   -4.5575    1.6445 H         1 <0>         0.1188
     11 C9          2.7038   -4.6051    1.6451 C.2       1 <0>         0.0083
     12 C10         3.7022   -5.1161    2.3971 C.2       1 <0>         0.0841
     13 N1          4.7199   -5.4281    1.5470 N.pl3     1 <0>        -0.5018
     14 H2          5.5767   -5.8125    1.7898 H         1 <0>         0.4675
     15 C11         4.3096   -5.1008    0.2999 C.cat     1 <0>         0.3061
     16 N2          3.1000   -4.6089    0.3705 N.pl3     1 <0>        -0.4569
     17 C12         3.6495   -5.2935    3.8918 C.3       1 <0>        -0.0807
     18 C13         2.5202   -4.4204    4.4539 C.3       1 <0>         0.1176
     19 N3          1.3227   -4.5800    3.6130 N.am      1 <0>        -0.6185
     20 C14         0.1956   -5.1266    4.1103 C.2       1 <0>         0.7329
     21 O2          0.1272   -5.4106    5.2906 O.2       1 <0>        -0.5534
     22 N4         -0.8555   -5.3586    3.2993 N.am      1 <0>        -0.7161
     23 C15        -2.1177   -5.8493    3.8583 C.3       1 <0>         0.1888
     24 H3         -2.2732   -5.4111    4.8441 H         1 <0>         0.1443
     25 C16        -3.2723   -5.4527    2.9360 C.3       1 <0>        -0.1235
     26 C17        -3.4035   -3.9516    2.9125 C.2       1 <0>         0.4573
     27 O3         -2.6508   -3.2690    3.5663 O.2       1 <0>        -0.4866
     28 O4         -4.3566   -3.3728    2.1653 O.3       1 <0>        -0.3486
     29 C18        -4.4233   -1.9456    2.1904 C.3       1 <0>         0.0340
     30 C19        -2.0638   -7.3505    3.9786 C.2       1 <0>         0.4517
     31 O5         -1.0728   -7.9491    3.6329 O.2       1 <0>        -0.4907
     32 O6         -3.1167   -8.0227    4.4698 O.3       1 <0>        -0.3477
     33 C20        -2.9964   -9.4440    4.5556 C.3       1 <0>         0.0333
     34 H4          2.1863    1.9968    3.6484 H         1 <0>         0.0614
     35 H5          3.9585    2.1629    3.6476 H         1 <0>         0.1078
     36 H6          3.0805    1.9859    2.1094 H         1 <0>         0.0594
     37 H7          1.1390    1.2178    2.0050 H         1 <0>         0.1364
     38 H8         -0.6396   -0.1402    0.9802 H         1 <0>         0.1340
     39 H9         -0.5241   -2.5971    1.0751 H         1 <0>         0.1243
     40 H10         3.1567   -2.3504    3.2140 H         1 <0>         0.1310
     41 H11         4.8861   -5.2254   -0.6048 H         1 <0>         0.2712
     42 H12         3.4551   -6.3395    4.1289 H         1 <0>         0.1172
     43 H13         4.5998   -4.9881    4.3297 H         1 <0>         0.1201
     44 H14         2.2927   -4.7308    5.4737 H         1 <0>         0.1284
     45 H15         2.8311   -3.3757    4.4505 H         1 <0>         0.0944
     46 H16        -0.7764   -5.2006    2.3456 H         1 <0>         0.3958
     47 H17        -3.0731   -5.8158    1.9278 H         1 <0>         0.1201
     48 H18        -4.1990   -5.8927    3.3043 H         1 <0>         0.1450
     49 H19        -5.2348   -1.6084    1.5455 H         1 <0>         0.1068
     50 H20        -4.6060   -1.6084    3.2107 H         1 <0>         0.0650
     51 H21        -3.4801   -1.5314    1.8342 H         1 <0>         0.0603
     52 H22        -2.1579   -9.6992    5.2035 H         1 <0>         0.0638
     53 H23        -3.9147   -9.8621    4.9680 H         1 <0>         0.1096
     54 H24        -2.8250   -9.8548    3.5606 H         1 <0>         0.0631
     55 H25         2.5748   -4.2967   -0.3829 H         1 <0>         0.4658
@<TRIPOS>BOND
     1    1    2 1
     2    1   34 1
     3    1   35 1
     4    1   36 1
     5    2    3 1
     6    3    8 ar
     7    3    4 ar
     8    4    5 ar
     9    4   37 1
    10    5    6 ar
    11    5   38 1
    12    6    7 ar
    13    6   39 1
    14    7    8 ar
    15    7    9 1
    16    8   40 1
    17    9   10 1
    18    9   19 1
    19    9   11 1
    20   11   16 1
    21   11   12 2
    22   12   13 1
    23   12   17 1
    24   13   14 1
    25   13   15 1
    26   15   16 2
    27   15   41 1
    28   16   55 1
    29   17   18 1
    30   17   42 1
    31   17   43 1
    32   18   19 1
    33   18   44 1
    34   18   45 1
    35   19   20 am
    36   20   21 2
    37   20   22 am
    38   22   23 1
    39   22   46 1
    40   23   24 1
    41   23   25 1
    42   23   30 1
    43   25   26 1
    44   25   47 1
    45   25   48 1
    46   26   27 2
    47   26   28 1
    48   28   29 1
    49   29   49 1
    50   29   50 1
    51   29   51 1
    52   30   31 2
    53   30   32 1
    54   32   33 1
    55   33   52 1
    56   33   53 1
    57   33   54 1
