@<TRIPOS>MOLECULE
ZINC62877330
   46    46     0     0     0
SMALL
USER_CHARGES

@<TRIPOS>ATOM
      1 C1         -2.0960    0.8937    1.2324 C.3       1 <0>        -0.1638
      2 C2         -1.4118   -0.4171    0.8392 C.3       1 <0>        -0.0884
      3 C3         -0.6119   -0.9517    2.0288 C.3       1 <0>        -0.1549
      4 C4         -1.5567   -1.2080    3.2065 C.3       1 <0>        -0.1089
      5 C5         -0.7598   -1.8159    4.3645 C.3       1 <0>        -0.1408
      6 C6         -0.0698   -3.0949    3.8856 C.3       1 <0>        -0.0079
      7 N1          0.8389   -2.7792    2.7769 N.4       1 <0>        -0.3636
      8 C7          0.0726   -2.2628    1.6365 C.3       1 <0>         0.0238
      9 C8          1.5564   -3.9956    2.3724 C.3       1 <0>         0.0122
     10 H1          0.8375   -4.7646    2.0900 H         1 <0>         0.1505
     11 C9          2.4615   -3.6809    1.1796 C.3       1 <0>        -0.1760
     12 C10         2.3951   -4.4901    3.5226 C.2       1 <0>         0.5107
     13 O1          2.7985   -3.7098    4.3582 O.2       1 <0>        -0.4353
     14 N2          2.6968   -5.7999    3.6224 N.am      1 <0>        -0.6808
     15 C11         3.4469   -6.2421    4.6512 C.2       1 <0>         0.6910
     16 O2          3.8512   -5.4599    5.4888 O.2       1 <0>        -0.5177
     17 N3          3.7485   -7.5519    4.7510 N.am      1 <0>        -0.7320
     18 C12         4.5638   -8.0327    5.8692 C.3       1 <0>         0.1270
     19 C13         4.7570   -9.5454    5.7461 C.3       1 <0>        -0.1666
     20 C14         0.4305    0.0600    2.4298 C.2       1 <0>         0.5002
     21 O3          0.0922    1.1774    2.7812 O.co2     1 <0>        -0.6397
     22 O4          1.6123   -0.2389    2.4027 O.co2     1 <0>        -0.6956
     23 H2         -1.3411    1.6252    1.5209 H         1 <0>         0.0979
     24 H3         -2.6658    1.2746    0.3848 H         1 <0>         0.0433
     25 H4         -2.7683    0.7152    2.0715 H         1 <0>         0.0502
     26 H5         -2.1667   -1.1486    0.5507 H         1 <0>         0.0555
     27 H6         -0.7395   -0.2386    0.0001 H         1 <0>         0.0619
     28 H7         -2.0041   -0.2670    3.5264 H         1 <0>         0.0978
     29 H8         -2.3409   -1.9005    2.9007 H         1 <0>         0.0672
     30 H9         -0.0089   -1.1023    4.7037 H         1 <0>         0.0916
     31 H10        -1.4354   -2.0527    5.1865 H         1 <0>         0.1034
     32 H11         0.4983   -3.5304    4.7077 H         1 <0>         0.1178
     33 H12        -0.8215   -3.8078    3.5469 H         1 <0>         0.1182
     34 H13        -0.6821   -2.9934    1.3457 H         1 <0>         0.1099
     35 H14         0.7459   -2.0839    0.7981 H         1 <0>         0.1276
     36 H15         3.1805   -2.9118    1.4620 H         1 <0>         0.0975
     37 H16         2.9939   -4.5834    0.8794 H         1 <0>         0.1013
     38 H17         1.8549   -3.3232    0.3476 H         1 <0>         0.1006
     39 H18         2.3741   -6.4242    2.9539 H         1 <0>         0.4147
     40 H19         3.4258   -8.1763    4.0824 H         1 <0>         0.4007
     41 H20         5.5356   -7.5394    5.8487 H         1 <0>         0.0734
     42 H21         4.0610   -7.8059    6.8093 H         1 <0>         0.0730
     43 H22         3.7852  -10.0387    5.7666 H         1 <0>         0.0636
     44 H23         5.2598   -9.7722    4.8060 H         1 <0>         0.0640
     45 H24         5.3636   -9.9031    6.5781 H         1 <0>         0.0809
     46 H25         1.5044   -2.0826    3.0768 H         1 <0>         0.4441
@<TRIPOS>BOND
     1    1    2 1
     2    1   23 1
     3    1   24 1
     4    1   25 1
     5    2    3 1
     6    2   26 1
     7    2   27 1
     8    3    8 1
     9    3    4 1
    10    3   20 1
    11    4    5 1
    12    4   28 1
    13    4   29 1
    14    5    6 1
    15    5   30 1
    16    5   31 1
    17    6    7 1
    18    6   32 1
    19    6   33 1
    20    7    8 1
    21    7    9 1
    22    7   46 1
    23    8   34 1
    24    8   35 1
    25    9   10 1
    26    9   11 1
    27    9   12 1
    28   11   36 1
    29   11   37 1
    30   11   38 1
    31   12   13 2
    32   12   14 am
    33   14   15 am
    34   14   39 1
    35   15   16 2
    36   15   17 am
    37   17   18 1
    38   17   40 1
    39   18   19 1
    40   18   41 1
    41   18   42 1
    42   19   43 1
    43   19   44 1
    44   19   45 1
    45   20   21 2
    46   20   22 1
