@<TRIPOS>MOLECULE
ZINC29335477
   46    49     0     0     0
SMALL
USER_CHARGES
N-[[5-(4-chlorophenyl)-2-furyl]methyl]-N-methyl-3-oxo-4H-1,4-benzoxazine-6-sulfonamide
@<TRIPOS>ATOM
      1 C1         -2.0994    2.4271    1.6087 C.3       1 <0>         0.0768
      2 N1         -0.6545    2.2308    1.4671 N.pl3     1 <0>        -0.9944
      3 C2          0.2307    2.4531    2.6131 C.3       1 <0>         0.2017
      4 C3          0.5837    3.9157    2.6989 C.2       1 <0>        -0.0325
      5 C4         -0.1037    4.8508    3.3832 C.2       1 <0>        -0.1841
      6 C5          0.5675    6.0759    3.1962 C.2       1 <0>        -0.1898
      7 C6          1.6387    5.8179    2.3997 C.2       1 <0>         0.0325
      8 O1          1.6390    4.5024    2.1107 O.3       1 <0>        -0.1511
      9 C7          2.6335    6.8078    1.9366 C.ar      1 <0>        -0.0146
     10 C8          2.5163    8.1473    2.3117 C.ar      1 <0>        -0.0851
     11 C9          3.4509    9.0656    1.8807 C.ar      1 <0>        -0.1065
     12 C10         4.4977    8.6631    1.0685 C.ar      1 <0>        -0.0294
     13 C11         4.6164    7.3368    0.6887 C.ar      1 <0>        -0.1062
     14 C12         3.6910    6.4082    1.1177 C.ar      1 <0>        -0.0873
     15 Cl1         5.6657    9.8262    0.5237 Cl        1 <0>        -0.0638
     16 S1         -0.0218    1.7577    0.0117 S.o2      1 <0>         2.6872
     17 O2          1.3342    2.1824    0.0010 O.2       1 <0>        -0.9373
     18 O3         -0.9529    2.1568   -0.9848 O.2       1 <0>        -0.9480
     19 C13         0.0021   -0.0041    0.0020 C.ar      1 <0>        -0.6726
     20 C14         1.1144   -0.6809    0.4675 C.ar      1 <0>        -0.0104
     21 C15         1.1387   -2.0638    0.4690 C.ar      1 <0>        -0.1255
     22 C16         0.0501   -2.7729   -0.0079 C.ar      1 <0>         0.1323
     23 C17        -1.0688   -2.0905   -0.4830 C.ar      1 <0>         0.0808
     24 C18        -1.0894   -0.7057   -0.4763 C.ar      1 <0>        -0.0262
     25 N2         -2.1640   -2.8213   -0.9650 N.am      1 <0>        -0.6735
     26 C19        -2.2514   -4.1377   -0.6745 C.2       1 <0>         0.4925
     27 O4         -3.1740   -4.7965   -1.1058 O.2       1 <0>        -0.5036
     28 C20        -1.1978   -4.7845    0.1882 C.3       1 <0>         0.0448
     29 O5          0.0582   -4.1327   -0.0174 O.3       1 <0>        -0.2970
     30 H1         -2.5941    2.2143    0.6495 H         1 <0>         0.0894
     31 H2         -2.3010    3.4679    1.9023 H         1 <0>         0.0727
     32 H3         -2.4880    1.7465    2.3806 H         1 <0>         0.0691
     33 H4         -0.2808    2.1445    3.5368 H         1 <0>         0.1211
     34 H5          1.1492    1.8610    2.4873 H         1 <0>         0.1043
     35 H6         -0.9996    4.6917    3.9650 H         1 <0>         0.1536
     36 H7          0.2855    7.0344    3.6063 H         1 <0>         0.1534
     37 H8          1.6977    8.4632    2.9415 H         1 <0>         0.1387
     38 H9          3.3638   10.1014    2.1739 H         1 <0>         0.1410
     39 H10         5.4350    7.0288    0.0551 H         1 <0>         0.1401
     40 H11         3.7842    5.3742    0.8203 H         1 <0>         0.1419
     41 H12         1.9659   -0.1276    0.8351 H         1 <0>         0.1534
     42 H13         2.0074   -2.5893    0.8373 H         1 <0>         0.1529
     43 H14        -1.9557   -0.1752   -0.8433 H         1 <0>         0.1506
     44 H15        -2.9353   -2.3218   -1.5696 H         1 <0>         0.4469
     45 H16        -1.4858   -4.6970    1.2462 H         1 <0>         0.1070
     46 H17        -1.1059   -5.8473   -0.0801 H         1 <0>         0.1541
@<TRIPOS>BOND
     1    1    2 1
     2    1   30 1
     3    1   31 1
     4    1   32 1
     5    2    3 1
     6    2   16 1
     7    3    4 1
     8    3   33 1
     9    3   34 1
    10    4    8 1
    11    4    5 2
    12    5    6 1
    13    5   35 1
    14    6    7 2
    15    6   36 1
    16    7    8 1
    17    7    9 1
    18    9   14 ar
    19    9   10 ar
    20   10   11 ar
    21   10   37 1
    22   11   12 ar
    23   11   38 1
    24   12   13 ar
    25   12   15 1
    26   13   14 ar
    27   13   39 1
    28   14   40 1
    29   16   17 2
    30   16   18 2
    31   16   19 1
    32   19   24 ar
    33   19   20 ar
    34   20   21 ar
    35   20   41 1
    36   21   22 ar
    37   21   42 1
    38   22   29 1
    39   22   23 ar
    40   23   24 ar
    41   23   25 1
    42   24   43 1
    43   25   26 am
    44   25   44 1
    45   26   27 2
    46   26   28 1
    47   28   29 1
    48   28   45 1
    49   28   46 1
