@<TRIPOS>MOLECULE
ZINC38918335
   35    37     0     0     0
SMALL
USER_CHARGES

@<TRIPOS>ATOM
      1 C1          0.0128    1.3282    0.0088 C.ar      1 <0>        -0.1178
      2 C2          1.1863    2.0534    0.0076 C.ar      1 <0>        -0.0210
      3 C3          2.4022    1.4076   -0.2293 C.ar      1 <0>        -0.1031
      4 C4          2.4201    0.0302   -0.4635 C.ar      1 <0>         0.0068
      5 C5          1.2391   -0.6819   -0.4593 C.ar      1 <0>        -0.0473
      6 C6          0.0382   -0.0355   -0.2239 C.ar      1 <0>        -0.0014
      7 N1          1.2558   -2.1410   -0.7077 N.pl3     1 <0>         0.0212
      8 O1          2.3040   -2.7071   -0.9139 O.2       1 <0>        -0.1373
      9 O2          0.2213   -2.7667   -0.7044 O.3       1 <0>        -0.1273
     10 C7          3.6606    2.1759   -0.2327 C.2       1 <0>         0.2089
     11 N2          3.6404    3.4559   -0.0151 N.2       1 <0>        -0.2435
     12 N3          4.8424    4.1689    0.0826 N.pl3     1 <0>        -0.3772
     13 C8          5.0189    5.6273    0.2130 C.3       1 <0>         0.2497
     14 H1          4.6074    6.1416   -0.6555 H         1 <0>         0.2505
     15 N4          6.4783    5.8015    0.2728 N.2       1 <0>         0.0443
     16 N5          7.0012    4.6869    0.1933 N.pl3     1 <0>        -0.1208
     17 C9          6.0998    3.6741    0.0843 C.2       1 <0>         0.2264
     18 S1          6.5003    2.0140   -0.0368 S.2       1 <0>        -0.1066
     19 C10         4.3711    6.1275    1.4784 C.ar      1 <0>        -0.0007
     20 C11         3.2619    5.4867    2.0091 C.ar      1 <0>        -0.0967
     21 C12         2.6945    5.9742    3.1712 C.ar      1 <0>         0.1608
     22 N6          3.1958    7.0350    3.7731 N.ar      1 <0>        -0.4247
     23 C13         4.2494    7.6693    3.2971 C.ar      1 <0>         0.1640
     24 C14         4.8735    7.2359    2.1426 C.ar      1 <0>        -0.1020
     25 H2         -0.9274    1.8253    0.1962 H         1 <0>         0.1652
     26 H3          1.1650    3.1178    0.1890 H         1 <0>         0.1505
     27 H4          3.3564   -0.4755   -0.6477 H         1 <0>         0.1711
     28 H5         -0.8836   -0.5982   -0.2214 H         1 <0>         0.1721
     29 H6          4.5991    1.6741   -0.4161 H         1 <0>         0.1965
     30 H7          2.8464    4.6179    1.5203 H         1 <0>         0.2021
     31 H8          1.8304    5.4808    3.5910 H         1 <0>         0.2292
     32 H9          4.6314    8.5351    3.8176 H         1 <0>         0.2318
     33 H10         5.7390    7.7567    1.7604 H         1 <0>         0.2029
     34 H11         7.9608    4.5463    0.2108 H         1 <0>         0.5064
     35 H12         2.7784    7.3574    4.5872 H         1 <0>         0.4673
@<TRIPOS>BOND
     1    1    6 ar
     2    1    2 ar
     3    1   25 1
     4    2    3 ar
     5    2   26 1
     6    3    4 ar
     7    3   10 1
     8    4    5 ar
     9    4   27 1
    10    5    6 ar
    11    5    7 1
    12    6   28 1
    13    7    8 2
    14    7    9 1
    15   10   11 2
    16   10   29 1
    17   11   12 1
    18   12   17 1
    19   12   13 1
    20   13   14 1
    21   13   15 1
    22   13   19 1
    23   15   16 2
    24   16   17 1
    25   16   34 1
    26   17   18 2
    27   19   24 ar
    28   19   20 ar
    29   20   21 ar
    30   20   30 1
    31   21   22 ar
    32   21   31 1
    33   22   23 ar
    34   22   35 1
    35   23   24 ar
    36   23   32 1
    37   24   33 1
