@<TRIPOS>MOLECULE
ZINC63598724
   35    36     0     0     0
SMALL
USER_CHARGES

@<TRIPOS>ATOM
      1 C1          0.0993    1.5589   -0.5671 C.3       1 <0>        -0.1748
      2 C2          0.2872    0.0600   -0.3246 C.3       1 <0>        -0.1860
      3 C3          1.2201   -0.1504    0.8697 C.3       1 <0>        -0.0450
      4 C4          0.5632    0.4067    2.1343 C.3       1 <0>        -0.1762
      5 H1          1.1516    0.0796    2.9915 H         1 <0>         0.2095
      6 C5          0.6244    1.9211    2.0700 C.cat     1 <0>         0.5523
      7 N1         -0.5123    2.5738    2.1241 N.pl3     1 <0>        -0.5715
      8 C6         -1.6891    1.9418    2.2324 C.2       1 <0>         0.4764
      9 S1         -3.1037    2.9041    2.2944 S.2       1 <0>        -0.4909
     10 N2         -1.8395    0.6139    2.2952 N.2       1 <0>        -0.5571
     11 C7         -0.8218   -0.2003    2.2533 C.2       1 <0>         0.4881
     12 O1         -0.9969   -1.5317    2.3154 O.3       1 <0>        -0.5366
     13 N3          1.8097    2.5757    1.9611 N.pl3     1 <0>        -0.7564
     14 C8          1.4878   -1.6459    1.0505 C.3       1 <0>        -0.1729
     15 H2          0.5627   -2.1156    1.3848 H         1 <0>         0.2065
     16 C9          1.8503   -2.2276   -0.3028 C.cat     1 <0>         0.5437
     17 N4          3.0154   -2.8205   -0.4124 N.pl3     1 <0>        -0.5632
     18 C10         3.8627   -2.9168    0.6216 C.2       1 <0>         0.4730
     19 S2          5.3536   -3.7145    0.3538 S.2       1 <0>        -0.4868
     20 N5          3.6288   -2.4350    1.8474 N.2       1 <0>        -0.5569
     21 C11         2.5236   -1.8109    2.1463 C.2       1 <0>         0.4839
     22 O2          2.3112   -1.3327    3.3846 O.3       1 <0>        -0.5336
     23 N6          1.0015   -2.1383   -1.3597 N.pl3     1 <0>        -0.7584
     24 H3          1.0728    2.0489   -0.5855 H         1 <0>         0.0633
     25 H4         -0.4028    1.7123   -1.5223 H         1 <0>         0.0859
     26 H5         -0.5060    1.9835    0.2339 H         1 <0>         0.0538
     27 H6         -0.6794   -0.3983   -0.1157 H         1 <0>         0.0983
     28 H7          0.7232   -0.3997   -1.2116 H         1 <0>         0.1007
     29 H8          2.1620    0.3683    0.6909 H         1 <0>         0.0991
     30 H9          2.6326    2.0739    1.8512 H         1 <0>         0.4453
     31 H10         1.8333    3.5449    1.9932 H         1 <0>         0.4344
     32 H11         0.0973   -1.8122   -1.2295 H         1 <0>         0.4514
     33 H12         1.2996   -2.4008   -2.2447 H         1 <0>         0.4307
     34 H13        -0.5006    3.5430    2.0849 H         1 <0>         0.4347
     35 H14         3.2712   -3.2007   -1.2673 H         1 <0>         0.4352
@<TRIPOS>BOND
     1    1    2 1
     2    1   24 1
     3    1   25 1
     4    1   26 1
     5    2    3 1
     6    2   27 1
     7    2   28 1
     8    3    4 1
     9    3   14 1
    10    3   29 1
    11    4    5 1
    12    4   11 1
    13    4    6 1
    14    6    7 2
    15    6   13 1
    16    7    8 1
    17    7   34 1
    18    8    9 2
    19    8   10 1
    20   10   11 2
    21   11   12 1
    22   13   30 1
    23   13   31 1
    24   14   15 1
    25   14   21 1
    26   14   16 1
    27   16   17 2
    28   16   23 1
    29   17   18 1
    30   17   35 1
    31   18   19 2
    32   18   20 1
    33   20   21 2
    34   21   22 1
    35   23   32 1
    36   23   33 1
