@<TRIPOS>MOLECULE
ZINC13639865
   40    43     0     0     0
SMALL
USER_CHARGES
4-[(3aR,4R,9bS)-6-nitro-3a,4,5,9b-tetrahydro-3H-cyclopenta[c]quinolin-4-yl]benzene-1,3-diol
@<TRIPOS>ATOM
      1 C1          5.6744   -1.3523   -1.9994 C.ar      1 <0>        -0.1474
      2 C2          4.4098   -1.4894   -2.5349 C.ar      1 <0>        -0.0441
      3 C3          3.3434   -1.8834   -1.7378 C.ar      1 <0>        -0.1039
      4 C4          3.5577   -2.1392   -0.3963 C.ar      1 <0>         0.1997
      5 C5          4.8360   -1.9990    0.1423 C.ar      1 <0>        -0.0817
      6 C6          5.8891   -1.6071   -0.6574 C.ar      1 <0>        -0.0382
      7 N1          5.0640   -2.2723    1.5789 N.pl3     1 <0>         0.0352
      8 O1          5.8448   -1.5855    2.2131 O.2       1 <0>        -0.1601
      9 O2          4.4709   -3.1841    2.1270 O.3       1 <0>        -0.1548
     10 N2          2.5192   -2.5608    0.4624 N.pl3     1 <0>        -0.5984
     11 C7          1.2289   -2.0404    0.0074 C.3       1 <0>         0.1352
     12 H1          0.4433   -2.3804    0.6821 H         1 <0>         0.1122
     13 C8          0.9370   -2.5388   -1.3989 C.3       1 <0>        -0.0893
     14 H2         -0.0730   -2.2736   -1.7114 H         1 <0>         0.1033
     15 C9          1.9926   -2.0102   -2.3914 C.3       1 <0>        -0.0177
     16 H3          1.6737   -1.0695   -2.8403 H         1 <0>         0.1017
     17 C10         2.0775   -3.1403   -3.4232 C.2       1 <0>        -0.1724
     18 C11         1.6190   -4.2616   -2.9275 C.2       1 <0>        -0.1471
     19 C12         1.1762   -4.0658   -1.4897 C.3       1 <0>        -0.0986
     20 C13         1.2695   -0.5339    0.0058 C.ar      1 <0>        -0.1558
     21 C14         0.7666    0.1692   -1.0724 C.ar      1 <0>        -0.0773
     22 C15         0.8023    1.5502   -1.0769 C.ar      1 <0>        -0.1486
     23 C16         1.3438    2.2350    0.0022 C.ar      1 <0>         0.1291
     24 C17         1.8492    1.5321    1.0846 C.ar      1 <0>        -0.1652
     25 C18         1.8122    0.1460    1.0867 C.ar      1 <0>         0.1231
     26 O3          2.3066   -0.5459    2.1467 O.3       1 <0>        -0.5012
     27 O4          1.3783    3.5935   -0.0026 O.3       1 <0>        -0.4958
     28 H4          6.4967   -1.0458   -2.6289 H         1 <0>         0.1448
     29 H5          4.2482   -1.2884   -3.5837 H         1 <0>         0.1396
     30 H6          6.8780   -1.4993   -0.2369 H         1 <0>         0.1465
     31 H7          2.7074   -2.2799    1.4131 H         1 <0>         0.3816
     32 H8          2.4543   -3.0205   -4.4282 H         1 <0>         0.1282
     33 H9          1.5637   -5.1957   -3.4667 H         1 <0>         0.1292
     34 H10         1.9618   -4.3739   -0.7997 H         1 <0>         0.0998
     35 H11         0.2538   -4.6122   -1.2932 H         1 <0>         0.0752
     36 H12         0.3445   -0.3619   -1.9129 H         1 <0>         0.1422
     37 H13         0.4087    2.0975   -1.9206 H         1 <0>         0.1362
     38 H14         2.2672    2.0632    1.9270 H         1 <0>         0.1382
     39 H15         1.6548   -0.7244    2.8384 H         1 <0>         0.4005
     40 H16         2.1830    3.9652   -0.3890 H         1 <0>         0.3959
@<TRIPOS>BOND
     1    1    6 ar
     2    1    2 ar
     3    1   28 1
     4    2    3 ar
     5    2   29 1
     6    3   15 1
     7    3    4 ar
     8    4    5 ar
     9    4   10 1
    10    5    6 ar
    11    5    7 1
    12    6   30 1
    13    7    8 2
    14    7    9 1
    15   10   11 1
    16   10   31 1
    17   11   12 1
    18   11   13 1
    19   11   20 1
    20   13   14 1
    21   13   19 1
    22   13   15 1
    23   15   16 1
    24   15   17 1
    25   17   18 2
    26   17   32 1
    27   18   19 1
    28   18   33 1
    29   19   34 1
    30   19   35 1
    31   20   25 ar
    32   20   21 ar
    33   21   22 ar
    34   21   36 1
    35   22   23 ar
    36   22   37 1
    37   23   24 ar
    38   23   27 1
    39   24   25 ar
    40   24   38 1
    41   25   26 1
    42   26   39 1
    43   27   40 1
