@<TRIPOS>MOLECULE
ZINC39454571
   58    60     0     0     0
SMALL
USER_CHARGES

@<TRIPOS>ATOM
      1 C1          0.1539    1.2882   -0.0980 C.3       1 <0>        -0.1845
      2 C2          0.0244   -0.2334   -0.0033 C.3       1 <0>        -0.0244
      3 N1         -1.3943   -0.5983    0.1066 N.4       1 <0>        -0.3585
      4 C3         -1.5112   -2.0430    0.3456 C.3       1 <0>        -0.0402
      5 C4         -0.9077   -2.3811    1.6844 C.2       1 <0>         0.5160
      6 O1         -0.4274   -1.5048    2.3719 O.2       1 <0>        -0.5017
      7 N2         -0.9017   -3.6572    2.1179 N.am      1 <0>        -0.6496
      8 C5         -0.2420   -3.9893    3.3064 C.ar      1 <0>         0.1795
      9 C6          0.7973   -3.1937    3.7712 C.ar      1 <0>        -0.1286
     10 C7          1.4463   -3.5241    4.9445 C.ar      1 <0>        -0.0631
     11 C8          1.0627   -4.6462    5.6563 C.ar      1 <0>        -0.1215
     12 C9          0.0288   -5.4404    5.1961 C.ar      1 <0>        -0.0474
     13 C10        -0.6288   -5.1116    4.0266 C.ar      1 <0>        -0.2052
     14 C11        -1.7604   -5.9739    3.5295 C.3       1 <0>         0.5061
     15 F1         -1.9623   -7.0359    4.4175 F         1 <0>        -0.1646
     16 F2         -2.9281   -5.2079    3.4454 F         1 <0>        -0.1741
     17 F3         -1.4413   -6.4782    2.2642 F         1 <0>        -0.1787
     18 C12        -2.0874   -0.2507   -1.1411 C.3       1 <0>        -0.0370
     19 C13        -3.5679   -0.4764   -0.9730 C.2       1 <0>         0.5127
     20 O2         -4.0140   -0.7924    0.1096 O.2       1 <0>        -0.5135
     21 N3         -4.3961   -0.3270   -2.0257 N.am      1 <0>        -0.7027
     22 C14        -5.8353   -0.5463   -1.8623 C.3       1 <0>         0.3598
     23 H1         -6.0257   -1.1361   -0.9656 H         1 <0>         0.1530
     24 C15        -6.3947   -1.2468   -3.0730 C.2       1 <0>        -0.2378
     25 H2         -6.9996   -3.7945   -5.0001 H         1 <0>         0.4509
     26 C16        -7.0249   -0.3090   -3.8422 C.2       1 <0>        -0.0318
     27 C17        -7.6307   -0.7207   -5.0350 C.2       1 <0>         0.0843
     28 N4         -7.5867   -1.9767   -5.3916 N.2       1 <0>        -0.1881
     29 N5         -7.0012   -2.8764   -4.6870 N.am      1 <0>        -0.4354
     30 C18        -6.3893   -2.5788   -3.5218 C.2       1 <0>         0.5106
     31 O3         -5.8392   -3.4514   -2.8691 O.2       1 <0>        -0.5216
     32 C19        -8.3347    0.2857   -5.9083 C.3       1 <0>        -0.0964
     33 C20        -6.8864    1.0201   -3.1446 C.3       1 <0>         0.0995
     34 H3         -7.8339    1.5584   -3.1702 H         1 <0>         0.1371
     35 O4         -6.5243    0.7165   -1.7817 O.3       1 <0>        -0.3295
     36 C21        -5.7892    1.8532   -3.8102 C.3       1 <0>        -0.1637
     37 H4          1.2082    1.5645   -0.0877 H         1 <0>         0.1110
     38 H5         -0.3035    1.6348   -1.0246 H         1 <0>         0.0781
     39 H6         -0.3509    1.7492    0.7510 H         1 <0>         0.0843
     40 H7          0.4489   -0.6905   -0.8972 H         1 <0>         0.1320
     41 H8          0.5604   -0.5896    0.8764 H         1 <0>         0.1506
     42 H9         -2.5632   -2.3284    0.3387 H         1 <0>         0.1738
     43 H10        -0.9826   -2.5849   -0.4385 H         1 <0>         0.1665
     44 H11        -1.3546   -4.3455    1.6060 H         1 <0>         0.4212
     45 H12         1.0977   -2.3178    3.2154 H         1 <0>         0.1549
     46 H13         2.2545   -2.9059    5.3064 H         1 <0>         0.1434
     47 H14         1.5721   -4.9027    6.5734 H         1 <0>         0.1449
     48 H15        -0.2681   -6.3162    5.7540 H         1 <0>         0.1500
     49 H16        -1.9042    0.7972   -1.3787 H         1 <0>         0.1729
     50 H17        -1.7139   -0.8775   -1.9509 H         1 <0>         0.1651
     51 H18        -4.0393   -0.0742   -2.8915 H         1 <0>         0.4072
     52 H19        -7.6272    0.7030   -6.6248 H         1 <0>         0.0901
     53 H20        -9.1480   -0.2040   -6.4440 H         1 <0>         0.0915
     54 H21        -8.7383    1.0859   -5.2879 H         1 <0>         0.0873
     55 H22        -6.0463    2.0237   -4.8557 H         1 <0>         0.0861
     56 H23        -5.6987    2.8109   -3.2975 H         1 <0>         0.0866
     57 H24        -4.8411    1.3186   -3.7516 H         1 <0>         0.0533
     58 H25        -1.8123   -0.0953    0.8749 H         1 <0>         0.4394
@<TRIPOS>BOND
     1    1    2 1
     2    1   37 1
     3    1   38 1
     4    1   39 1
     5    2    3 1
     6    2   40 1
     7    2   41 1
     8    3    4 1
     9    3   18 1
    10    3   58 1
    11    4    5 1
    12    4   42 1
    13    4   43 1
    14    5    6 2
    15    5    7 am
    16    7    8 1
    17    7   44 1
    18    8   13 ar
    19    8    9 ar
    20    9   10 ar
    21    9   45 1
    22   10   11 ar
    23   10   46 1
    24   11   12 ar
    25   11   47 1
    26   12   13 ar
    27   12   48 1
    28   13   14 1
    29   14   15 1
    30   14   16 1
    31   14   17 1
    32   18   19 1
    33   18   49 1
    34   18   50 1
    35   19   20 2
    36   19   21 am
    37   21   22 1
    38   21   51 1
    39   22   23 1
    40   22   35 1
    41   22   24 1
    42   24   30 1
    43   24   26 2
    44   25   29 1
    45   26   33 1
    46   26   27 1
    47   27   32 1
    48   27   28 2
    49   28   29 1
    50   29   30 am
    51   30   31 2
    52   32   52 1
    53   32   53 1
    54   32   54 1
    55   33   34 1
    56   33   35 1
    57   33   36 1
    58   36   55 1
    59   36   56 1
    60   36   57 1
