@<TRIPOS>MOLECULE
ZINC32809139
   59    62     0     0     0
SMALL
USER_CHARGES
4-[[(3S,5S)-3,5-dimethyl-1-piperidyl]sulfonyl]-N-[4-(1,2,4-triazol-1-ylmethyl)phenyl]benzamide
@<TRIPOS>ATOM
      1 C1         -2.3969    0.1287    2.4876 C.3       1 <0>        -0.1569
      2 C2         -2.5628    1.6178    2.7974 C.3       1 <0>        -0.1075
      3 H1         -3.6244    1.8298    2.9923 H         1 <0>         0.0855
      4 C3         -1.7333    1.9782    4.0319 C.3       1 <0>        -0.1083
      5 C4         -0.2622    1.6428    3.7759 C.3       1 <0>        -0.1100
      6 H2         -0.1633    0.5714    3.5471 H         1 <0>         0.0784
      7 C5          0.2477    2.4708    2.5922 C.3       1 <0>         0.1213
      8 N1         -0.6333    2.2401    1.4393 N.pl3     1 <0>        -0.9904
      9 C6         -2.0784    2.4510    1.6010 C.3       1 <0>         0.1203
     10 S1         -0.0088    1.7581   -0.0167 S.o2      1 <0>         2.6862
     11 O1          1.3482    2.1796   -0.0361 O.2       1 <0>        -0.9494
     12 O2         -0.9437    2.1542   -1.0108 O.2       1 <0>        -0.9482
     13 C7          0.0111   -0.0037   -0.0175 C.ar      1 <0>        -0.6539
     14 C8          1.1254   -0.6802    0.4464 C.ar      1 <0>        -0.0246
     15 C9          1.1455   -2.0595    0.4531 C.ar      1 <0>        -0.1070
     16 C10         0.0427   -2.7728   -0.0197 C.ar      1 <0>        -0.0783
     17 C11        -1.0762   -2.0842   -0.4913 C.ar      1 <0>        -0.0769
     18 C12        -1.0854   -0.7047   -0.4875 C.ar      1 <0>        -0.0213
     19 C13         0.0597   -4.2509   -0.0213 C.2       1 <0>         0.5573
     20 O3         -0.9020   -4.8694   -0.4339 O.2       1 <0>        -0.5076
     21 N2          1.1415   -4.9128    0.4348 N.am      1 <0>        -0.6800
     22 C14         1.1212   -6.3083    0.5241 C.ar      1 <0>         0.1602
     23 C15         1.7912   -6.9493    1.5582 C.ar      1 <0>        -0.1471
     24 C16         1.7647   -8.3273    1.6465 C.ar      1 <0>        -0.0793
     25 C17         1.0816   -9.0693    0.7003 C.ar      1 <0>        -0.1279
     26 C18         0.4179   -8.4344   -0.3334 C.ar      1 <0>        -0.0617
     27 C19         0.4357   -7.0564   -0.4243 C.ar      1 <0>        -0.1237
     28 C20         1.0601  -10.5731    0.7963 C.3       1 <0>         0.1700
     29 N3          2.1954  -11.1261    0.0536 N.pl3     1 <0>        -0.3759
     30 C21         3.1367  -11.9618    0.5255 C.2       1 <0>         0.2519
     31 N4          3.9725  -12.2224   -0.4467 N.2       1 <0>        -0.5466
     32 C22         3.5993  -11.5743   -1.5495 C.2       1 <0>         0.1963
     33 N5          2.5131  -10.8934   -1.2945 N.2       1 <0>        -0.3113
     34 C23         0.5612    1.9729    5.0225 C.3       1 <0>        -0.1502
     35 H3         -2.7444   -0.4653    3.3457 H         1 <0>         0.0583
     36 H4         -1.3360   -0.0899    2.2959 H         1 <0>         0.0591
     37 H5         -2.9910   -0.1292    1.5985 H         1 <0>         0.0552
     38 H6         -1.8328    3.0539    4.2392 H         1 <0>         0.0672
     39 H7         -2.0947    1.4031    4.8972 H         1 <0>         0.0665
     40 H8          0.2394    3.5376    2.8603 H         1 <0>         0.0798
     41 H9          1.2743    2.1630    2.3446 H         1 <0>         0.0916
     42 H10        -2.6083    2.1300    0.6921 H         1 <0>         0.0933
     43 H11        -2.2835    3.5154    1.7884 H         1 <0>         0.0804
     44 H12         1.9797   -0.1270    0.8078 H         1 <0>         0.1477
     45 H13         2.0141   -2.5864    0.8197 H         1 <0>         0.1361
     46 H14        -1.9328   -2.6301   -0.8581 H         1 <0>         0.1482
     47 H15        -1.9503   -0.1706   -0.8524 H         1 <0>         0.1483
     48 H16         2.0404   -4.3554    0.7368 H         1 <0>         0.4349
     49 H17         2.3286   -6.3706    2.2949 H         1 <0>         0.1287
     50 H18         2.2818   -8.8262    2.4528 H         1 <0>         0.1272
     51 H19        -0.1152   -9.0167   -1.0703 H         1 <0>         0.1288
     52 H20        -0.0832   -6.5612   -1.2316 H         1 <0>         0.1412
     53 H21         1.1309  -10.8742    1.8519 H         1 <0>         0.1128
     54 H22         0.1212  -10.9545    0.3684 H         1 <0>         0.1000
     55 H23         3.1935  -12.3498    1.5318 H         1 <0>         0.2181
     56 H24         4.1092  -11.6093   -2.5009 H         1 <0>         0.2159
     57 H25         1.6185    1.7317    4.8380 H         1 <0>         0.0584
     58 H26         0.1928    1.3802    5.8728 H         1 <0>         0.0596
     59 H27         0.4643    3.0441    5.2529 H         1 <0>         0.0591
@<TRIPOS>BOND
     1    1    2 1
     2    1   35 1
     3    1   36 1
     4    1   37 1
     5    2    3 1
     6    2    9 1
     7    2    4 1
     8    4    5 1
     9    4   38 1
    10    4   39 1
    11    5    6 1
    12    5    7 1
    13    5   34 1
    14    7    8 1
    15    7   40 1
    16    7   41 1
    17    8    9 1
    18    8   10 1
    19    9   42 1
    20    9   43 1
    21   10   11 2
    22   10   12 2
    23   10   13 1
    24   13   18 ar
    25   13   14 ar
    26   14   15 ar
    27   14   44 1
    28   15   16 ar
    29   15   45 1
    30   16   17 ar
    31   16   19 1
    32   17   18 ar
    33   17   46 1
    34   18   47 1
    35   19   20 2
    36   19   21 am
    37   21   22 1
    38   21   48 1
    39   22   27 ar
    40   22   23 ar
    41   23   24 ar
    42   23   49 1
    43   24   25 ar
    44   24   50 1
    45   25   26 ar
    46   25   28 1
    47   26   27 ar
    48   26   51 1
    49   27   52 1
    50   28   29 1
    51   28   53 1
    52   28   54 1
    53   29   33 1
    54   29   30 1
    55   30   31 2
    56   30   55 1
    57   31   32 1
    58   32   33 2
    59   32   56 1
    60   34   57 1
    61   34   58 1
    62   34   59 1
