@<TRIPOS>MOLECULE
ZINC29436633
   48    51     0     0     0
SMALL
USER_CHARGES
[2-[(2S)-2-carbamoyl-2,3-dihydro-1,4-benzoxazin-4-yl]-2-oxo-ethyl] 3-(4-fluorophenyl)imidazole-4-carboxylate
@<TRIPOS>ATOM
      1 C1          8.0719   -5.4759   -0.1493 C.ar      1 <0>        -0.1269
      2 C2          9.3912   -5.5896   -0.5475 C.ar      1 <0>        -0.0985
      3 C3         10.1358   -4.4587   -0.8244 C.ar      1 <0>        -0.1227
      4 C4          9.5613   -3.2020   -0.7035 C.ar      1 <0>         0.0963
      5 C5          8.2328   -3.0906   -0.2987 C.ar      1 <0>         0.0728
      6 C6          7.4906   -4.2275   -0.0268 C.ar      1 <0>        -0.1151
      7 N1          7.6448   -1.8191   -0.1846 N.am      1 <0>        -0.5498
      8 C7          8.5391   -0.6487   -0.1897 C.3       1 <0>         0.0723
      9 C8          9.6035   -0.8832   -1.2711 C.3       1 <0>         0.0614
     10 H1          9.1612   -1.0111   -2.2701 H         1 <0>         0.1083
     11 O1         10.3016   -2.0952   -0.9752 O.3       1 <0>        -0.2854
     12 C9         10.5747    0.2692   -1.2822 C.2       1 <0>         0.5289
     13 O2         11.7356    0.0868   -0.9823 O.2       1 <0>        -0.5128
     14 N2         10.1531    1.5024   -1.6255 N.am      1 <0>        -0.8702
     15 C10         6.3097   -1.6761   -0.0689 C.2       1 <0>         0.5216
     16 O3          5.5993   -2.6561    0.0098 O.2       1 <0>        -0.4777
     17 C11         5.6993   -0.2986   -0.0374 C.3       1 <0>         0.0461
     18 O4          4.2517   -0.4107   -0.0298 O.3       1 <0>        -0.3265
     19 C12         3.5486    0.7400   -0.0021 C.2       1 <0>         0.5484
     20 O5          4.1303    1.8079    0.0151 O.2       1 <0>        -0.4890
     21 C13         2.0838    0.7035    0.0071 C.2       1 <0>        -0.0859
     22 C14         1.2362    1.7771    0.0337 C.2       1 <0>         0.0983
     23 N3         -0.0124    1.3111    0.0328 N.2       1 <0>        -0.4902
     24 C15         0.0039    0.0025    0.0070 C.2       1 <0>         0.2401
     25 N4          1.2815   -0.4236   -0.0097 N.pl3     1 <0>        -0.3864
     26 C16         1.7159   -1.7560   -0.0394 C.ar      1 <0>         0.0855
     27 C17         2.6553   -2.1601   -0.9785 C.ar      1 <0>        -0.0452
     28 C18         3.0849   -3.4723   -1.0037 C.ar      1 <0>        -0.1088
     29 C19         2.5725   -4.3871   -0.0989 C.ar      1 <0>         0.1199
     30 C20         1.6319   -3.9870    0.8354 C.ar      1 <0>        -0.1413
     31 C21         1.2030   -2.6747    0.8665 C.ar      1 <0>        -0.0811
     32 F1          2.9905   -5.6715   -0.1281 F         1 <0>        -0.1318
     33 H2          7.4951   -6.3631    0.0665 H         1 <0>         0.1308
     34 H3          9.8417   -6.5665   -0.6428 H         1 <0>         0.1331
     35 H4         11.1656   -4.5535   -1.1355 H         1 <0>         0.1382
     36 H5          6.4603   -4.1387    0.2848 H         1 <0>         0.1726
     37 H6          7.9566    0.2568   -0.4148 H         1 <0>         0.1124
     38 H7          9.0121   -0.5443    0.7979 H         1 <0>         0.1054
     39 H8         10.8619    2.3435   -1.6336 H         1 <0>         0.4371
     40 H9          9.1002    1.6678   -1.8976 H         1 <0>         0.4212
     41 H10         6.0310    0.2288    0.8692 H         1 <0>         0.1120
     42 H11         6.0188    0.2645   -0.9267 H         1 <0>         0.1085
     43 H12         1.5271    2.8171    0.0517 H         1 <0>         0.1932
     44 H13        -0.8684   -0.6343   -0.0004 H         1 <0>         0.2210
     45 H14         3.0524   -1.4478   -1.6866 H         1 <0>         0.1323
     46 H15         3.8184   -3.7862   -1.7316 H         1 <0>         0.1418
     47 H16         1.2331   -4.7019    1.5399 H         1 <0>         0.1458
     48 H17         0.4689   -2.3632    1.5948 H         1 <0>         0.1404
@<TRIPOS>BOND
     1    1    6 ar
     2    1    2 ar
     3    1   33 1
     4    2    3 ar
     5    2   34 1
     6    3    4 ar
     7    3   35 1
     8    4   11 1
     9    4    5 ar
    10    5    6 ar
    11    5    7 1
    12    6   36 1
    13    7    8 1
    14    7   15 am
    15    8    9 1
    16    8   37 1
    17    8   38 1
    18    9   10 1
    19    9   11 1
    20    9   12 1
    21   12   13 2
    22   12   14 am
    23   14   39 1
    24   14   40 1
    25   15   16 2
    26   15   17 1
    27   17   18 1
    28   17   41 1
    29   17   42 1
    30   18   19 1
    31   19   20 2
    32   19   21 1
    33   21   25 1
    34   21   22 2
    35   22   23 1
    36   22   43 1
    37   23   24 2
    38   24   25 1
    39   24   44 1
    40   25   26 1
    41   26   31 ar
    42   26   27 ar
    43   27   28 ar
    44   27   45 1
    45   28   29 ar
    46   28   46 1
    47   29   30 ar
    48   29   32 1
    49   30   31 ar
    50   30   47 1
    51   31   48 1
