@<TRIPOS>MOLECULE
ZINC10032791
   53    55     0     0     0
SMALL
USER_CHARGES
methyl 2-[2-[3-(4-methoxyphenyl)sulfanylpropanoylimino]-6-sulfamoyl-benzothiazol-3-yl]acetate
@<TRIPOS>ATOM
      1 C1         -0.4473    0.8032   -0.1912 C.3       1 <0>         0.0258
      2 O1          0.8260    0.4486    0.3520 O.3       1 <0>        -0.3154
      3 C2          1.8207    0.1749   -0.5341 C.ar      1 <0>         0.1260
      4 C3          1.5723    0.2411   -1.8972 C.ar      1 <0>        -0.1888
      5 C4          2.5828   -0.0320   -2.7978 C.ar      1 <0>        -0.0892
      6 C5          3.8457   -0.3839   -2.3383 C.ar      1 <0>        -0.1210
      7 C6          4.0920   -0.4550   -0.9729 C.ar      1 <0>        -0.0570
      8 C7          3.0815   -0.1759   -0.0741 C.ar      1 <0>        -0.1326
      9 S1          5.1343   -0.7391   -3.4863 S.3       1 <0>        -0.1080
     10 C8          4.3509   -0.5184   -5.1075 C.3       1 <0>        -0.1004
     11 C9          5.3732   -0.7999   -6.2105 C.3       1 <0>        -0.1287
     12 C10         4.7224   -0.6165   -7.5573 C.2       1 <0>         0.5029
     13 O2          3.5527   -0.2917   -7.6282 O.2       1 <0>        -0.5076
     14 N1          5.4267   -0.8097   -8.6673 N.2       1 <0>        -0.5696
     15 C11         5.5384    0.1685   -9.5635 C.2       1 <0>         0.4149
     16 N2          5.1726    1.4715   -9.4390 N.pl3     1 <0>        -0.5259
     17 C12         5.3726    2.3511  -10.4865 C.ar      1 <0>         0.1948
     18 C13         5.0679    3.7203  -10.5444 C.ar      1 <0>        -0.1380
     19 C14         5.3295    4.4511  -11.6789 C.ar      1 <0>         0.0268
     20 C15         5.9001    3.8636  -12.7957 C.ar      1 <0>        -0.6847
     21 C16         6.2111    2.5157  -12.7660 C.ar      1 <0>         0.0766
     22 C17         5.9495    1.7838  -11.6320 C.ar      1 <0>        -0.1935
     23 S2          6.1785    0.0844  -11.1730 S.3       1 <0>         0.2052
     24 S3          6.2259    4.8216  -14.2382 S.o2      1 <0>         2.7091
     25 O3          6.3433    6.1718  -13.8111 O.2       1 <0>        -0.9557
     26 O4          7.2621    4.1531  -14.9443 O.2       1 <0>        -0.9555
     27 N3          4.8754    4.7432  -15.1934 N.pl3     1 <0>        -1.2489
     28 C18         4.5700    1.9458   -8.1907 C.3       1 <0>         0.0879
     29 C19         3.0687    1.9324   -8.3209 C.2       1 <0>         0.4688
     30 O5          2.5548    1.5645   -9.3506 O.2       1 <0>        -0.4843
     31 O6          2.3023    2.3293   -7.2928 O.3       1 <0>        -0.3523
     32 C20         0.8642    2.2901   -7.4890 C.3       1 <0>         0.0413
     33 H1         -0.3447    1.6997   -0.8025 H         1 <0>         0.0562
     34 H2         -0.8204   -0.0155   -0.8067 H         1 <0>         0.0562
     35 H3         -1.1481    0.9956    0.6212 H         1 <0>         0.1026
     36 H4          0.5892    0.5103   -2.2543 H         1 <0>         0.1317
     37 H5          2.3903    0.0237   -3.8591 H         1 <0>         0.1265
     38 H6          5.0733   -0.7288   -0.6146 H         1 <0>         0.1368
     39 H7          3.2727   -0.2312    0.9874 H         1 <0>         0.1384
     40 H8          3.5134   -1.2094   -5.2034 H         1 <0>         0.0977
     41 H9          3.9894    0.5057   -5.1999 H         1 <0>         0.0935
     42 H10         6.2107   -0.1089   -6.1145 H         1 <0>         0.1096
     43 H11         5.7348   -1.8240   -6.1180 H         1 <0>         0.1202
     44 H12         4.6230    4.2049   -9.6880 H         1 <0>         0.1406
     45 H13         5.0858    5.5031  -11.6995 H         1 <0>         0.1601
     46 H14         6.6562    2.0415  -13.6282 H         1 <0>         0.1650
     47 H15         4.1052    4.2298  -14.9032 H         1 <0>         0.4181
     48 H16         4.8544    5.2106  -16.0431 H         1 <0>         0.4238
     49 H17         4.8695    1.2922   -7.3714 H         1 <0>         0.1310
     50 H18         4.9080    2.9618   -7.9871 H         1 <0>         0.1354
     51 H19         0.5550    1.2679   -7.7073 H         1 <0>         0.0662
     52 H20         0.3645    2.6354   -6.5839 H         1 <0>         0.1041
     53 H21         0.5935    2.9376   -8.3230 H         1 <0>         0.0632
@<TRIPOS>BOND
     1    1    2 1
     2    1   33 1
     3    1   34 1
     4    1   35 1
     5    2    3 1
     6    3    8 ar
     7    3    4 ar
     8    4    5 ar
     9    4   36 1
    10    5    6 ar
    11    5   37 1
    12    6    7 ar
    13    6    9 1
    14    7    8 ar
    15    7   38 1
    16    8   39 1
    17    9   10 1
    18   10   11 1
    19   10   40 1
    20   10   41 1
    21   11   12 1
    22   11   42 1
    23   11   43 1
    24   12   13 2
    25   12   14 1
    26   14   15 2
    27   15   23 1
    28   15   16 1
    29   16   17 1
    30   16   28 1
    31   17   22 ar
    32   17   18 ar
    33   18   19 ar
    34   18   44 1
    35   19   20 ar
    36   19   45 1
    37   20   21 ar
    38   20   24 1
    39   21   22 ar
    40   21   46 1
    41   22   23 1
    42   24   25 2
    43   24   26 2
    44   24   27 1
    45   27   47 1
    46   27   48 1
    47   28   29 1
    48   28   49 1
    49   28   50 1
    50   29   30 2
    51   29   31 1
    52   31   32 1
    53   32   51 1
    54   32   52 1
    55   32   53 1
