@<TRIPOS>MOLECULE
ZINC38912783
   47    50     0     0     0
SMALL
USER_CHARGES

@<TRIPOS>ATOM
      1 C1         -0.0184    1.5028    0.0103 C.3       1 <0>        -0.1181
      2 C2          0.0021   -0.0041    0.0020 C.ar      1 <0>        -0.0658
      3 C3          0.0058   -0.6874   -1.2002 C.ar      1 <0>        -0.1225
      4 C4          0.0245   -2.0683   -1.2112 C.ar      1 <0>        -0.0637
      5 C5          0.0401   -2.7706   -0.0132 C.ar      1 <0>         0.1243
      6 C6          0.0368   -2.0814    1.1924 C.ar      1 <0>        -0.0625
      7 C7          0.0229   -0.7004    1.1966 C.ar      1 <0>        -0.1223
      8 C8          0.0531   -2.8395    2.4947 C.3       1 <0>        -0.1153
      9 N1          0.0586   -4.1697   -0.0209 N.am      1 <0>        -0.5699
     10 C9         -1.1421   -5.0138   -0.0249 C.3       1 <0>         0.1118
     11 C10        -0.6607   -6.4130   -0.4685 C.3       1 <0>        -0.0187
     12 H1         -0.7556   -6.5342   -1.5476 H         1 <0>         0.1472
     13 C11         0.8258   -6.3845   -0.0436 C.3       1 <0>        -0.1485
     14 C12         1.1783   -4.9134   -0.0314 C.2       1 <0>         0.5273
     15 O1          2.3070   -4.4696   -0.0287 O.2       1 <0>        -0.5024
     16 C13        -1.4104   -7.4977    0.2612 C.2       1 <0>         0.3062
     17 N2         -2.1402   -8.4234   -0.2927 N.2       1 <0>        -0.5234
     18 C14        -2.6625   -9.2254    0.6525 C.2       1 <0>         0.2996
     19 N3         -2.2601   -8.8055    1.8267 N.2       1 <0>        -0.3214
     20 O2         -1.4337   -7.6759    1.5883 O.3       1 <0>        -0.0919
     21 C15        -3.5472  -10.3910    0.4065 C.ar      1 <0>        -0.0463
     22 C16        -3.8991  -10.7384   -0.8965 C.ar      1 <0>        -0.0192
     23 C17        -4.7214  -11.8230   -1.1213 C.ar      1 <0>        -0.1505
     24 C18        -5.1981  -12.5667   -0.0538 C.ar      1 <0>         0.1582
     25 C19        -4.8512  -12.2248    1.2441 C.ar      1 <0>        -0.1402
     26 C20        -4.0237  -11.1445    1.4772 C.ar      1 <0>        -0.0190
     27 Br1        -5.5058  -13.2438    2.6963 Br        1 <0>        -0.0107
     28 F1         -6.0036  -13.6279   -0.2784 F         1 <0>        -0.1138
     29 C21         0.0275   -2.8123   -2.5217 C.3       1 <0>        -0.1144
     30 H2          1.0042    1.8801    0.0026 H         1 <0>         0.0741
     31 H3         -0.5455    1.8639   -0.8728 H         1 <0>         0.0689
     32 H4         -0.5286    1.8543    0.9071 H         1 <0>         0.0688
     33 H5         -0.0064   -0.1406   -2.1315 H         1 <0>         0.1280
     34 H6          0.0244   -0.1637    2.1338 H         1 <0>         0.1278
     35 H7          1.0846   -3.0087    2.8037 H         1 <0>         0.0739
     36 H8         -0.4648   -2.2600    3.2590 H         1 <0>         0.0708
     37 H9         -0.4487   -3.7982    2.3634 H         1 <0>         0.0648
     38 H10        -1.5722   -5.0625    0.9754 H         1 <0>         0.0861
     39 H11        -1.8742   -4.6248   -0.7326 H         1 <0>         0.1004
     40 H12         0.9471   -6.8180    0.9491 H         1 <0>         0.1192
     41 H13         1.4406   -6.9153   -0.7704 H         1 <0>         0.1233
     42 H14        -3.5288  -10.1590   -1.7293 H         1 <0>         0.1584
     43 H15        -4.9944  -12.0925   -2.1308 H         1 <0>         0.1586
     44 H16        -3.7500  -10.8811    2.4882 H         1 <0>         0.1532
     45 H17         1.0558   -2.9777   -2.8433 H         1 <0>         0.0739
     46 H18        -0.4727   -3.7725   -2.3956 H         1 <0>         0.0647
     47 H19        -0.4985   -2.2247   -3.2742 H         1 <0>         0.0709
@<TRIPOS>BOND
     1    1    2 1
     2    1   30 1
     3    1   31 1
     4    1   32 1
     5    2    7 ar
     6    2    3 ar
     7    3    4 ar
     8    3   33 1
     9    4    5 ar
    10    4   29 1
    11    5    6 ar
    12    5    9 1
    13    6    7 ar
    14    6    8 1
    15    7   34 1
    16    8   35 1
    17    8   36 1
    18    8   37 1
    19    9   14 am
    20    9   10 1
    21   10   11 1
    22   10   38 1
    23   10   39 1
    24   11   12 1
    25   11   13 1
    26   11   16 1
    27   13   14 1
    28   13   40 1
    29   13   41 1
    30   14   15 2
    31   16   20 1
    32   16   17 2
    33   17   18 1
    34   18   19 2
    35   18   21 1
    36   19   20 1
    37   21   26 ar
    38   21   22 ar
    39   22   23 ar
    40   22   42 1
    41   23   24 ar
    42   23   43 1
    43   24   25 ar
    44   24   28 1
    45   25   26 ar
    46   25   27 1
    47   26   44 1
    48   29   45 1
    49   29   46 1
    50   29   47 1
