@<TRIPOS>MOLECULE
ZINC61748194
   60    62     0     0     0
SMALL
USER_CHARGES

@<TRIPOS>ATOM
      1 C1         -1.1623    0.7632    3.3023 C.3       1 <0>        -0.1668
      2 C2         -0.9472   -0.6388    2.7287 C.3       1 <0>         0.1112
      3 N1         -2.2069   -1.1365    2.1702 N.am      1 <0>        -0.7304
      4 C3         -2.2574   -2.3596    1.6065 C.2       1 <0>         0.5175
      5 O1         -1.2601   -3.0483    1.5616 O.2       1 <0>        -0.5276
      6 C4         -3.5532   -2.8716    1.0321 C.3       1 <0>        -0.1228
      7 C5         -3.3378   -4.2723    0.4545 C.3       1 <0>        -0.1035
      8 C6         -4.6605   -4.8064   -0.0997 C.3       1 <0>        -0.1359
      9 C7         -5.1454   -3.8883   -1.2261 C.3       1 <0>         0.1039
     10 N2         -5.2163   -2.5120   -0.7169 N.am      1 <0>        -0.6145
     11 C8         -4.0255   -1.9315   -0.0815 C.3       1 <0>         0.1372
     12 C9         -6.3521   -1.7953   -0.8309 C.2       1 <0>         0.7102
     13 O2         -6.4294   -0.6937   -0.3221 O.2       1 <0>        -0.5657
     14 N3         -7.4020   -2.2997   -1.5088 N.am      1 <0>        -0.6872
     15 C10        -8.5399   -1.5136   -1.7225 C.ar      1 <0>         0.2260
     16 C11        -8.4147   -0.1421   -1.9004 C.ar      1 <0>        -0.1055
     17 C12        -9.5397    0.6309   -2.1115 C.ar      1 <0>        -0.0639
     18 C13       -10.7896    0.0405   -2.1458 C.ar      1 <0>        -0.0767
     19 C14       -10.9177   -1.3249   -1.9684 C.ar      1 <0>        -0.0616
     20 C15        -9.7961   -2.1042   -1.7626 C.ar      1 <0>        -0.1333
     21 N4        -11.9263    0.8257   -2.3597 N.4       1 <0>        -0.3135
     22 C16       -12.8264    0.7053   -1.2065 C.3       1 <0>        -0.0066
     23 C17       -14.0340    1.6253   -1.3990 C.3       1 <0>        -0.1430
     24 C18       -14.7788    1.2207   -2.6744 C.3       1 <0>        -0.1046
     25 C19       -13.8105    1.2785   -3.8594 C.3       1 <0>        -0.1431
     26 C20       -12.6113    0.3714   -3.5758 C.3       1 <0>        -0.0061
     27 C21       -15.9412    2.1859   -2.9160 C.3       1 <0>        -0.1538
     28 H1         -0.2251    1.1335    3.7178 H         1 <0>         0.0776
     29 H2         -1.4980    1.4324    2.5100 H         1 <0>         0.0621
     30 H3         -1.9170    0.7226    4.0877 H         1 <0>         0.0622
     31 H4         -0.1925   -0.5982    1.9433 H         1 <0>         0.0702
     32 H5         -0.6115   -1.3079    3.5210 H         1 <0>         0.0700
     33 H6         -3.0045   -0.5856    2.2062 H         1 <0>         0.4008
     34 H7         -4.3079   -2.9134    1.8174 H         1 <0>         0.1034
     35 H8         -2.6007   -4.2252   -0.3472 H         1 <0>         0.0777
     36 H9         -2.9780   -4.9374    1.2396 H         1 <0>         0.0818
     37 H10        -4.5115   -5.8133   -0.4897 H         1 <0>         0.0893
     38 H11        -5.4051   -4.8305    0.6960 H         1 <0>         0.0708
     39 H12        -4.4460   -3.9335   -2.0609 H         1 <0>         0.0841
     40 H13        -6.1339   -4.2069   -1.5572 H         1 <0>         0.0769
     41 H14        -4.2750   -0.9590    0.3427 H         1 <0>         0.1020
     42 H15        -3.2348   -1.8171   -0.8230 H         1 <0>         0.0815
     43 H16        -7.3690   -3.2076   -1.8487 H         1 <0>         0.4162
     44 H17        -7.4388    0.3196   -1.8734 H         1 <0>         0.1600
     45 H18        -9.4430    1.6977   -2.2497 H         1 <0>         0.1482
     46 H19       -11.8953   -1.7830   -1.9954 H         1 <0>         0.1457
     47 H20        -9.8963   -3.1712   -1.6290 H         1 <0>         0.1503
     48 H21       -13.1667   -0.3264   -1.1179 H         1 <0>         0.1269
     49 H22       -12.2939    0.9905   -0.2992 H         1 <0>         0.1310
     50 H23       -14.7019    1.5331   -0.5426 H         1 <0>         0.1131
     51 H24       -13.6948    2.6574   -1.4874 H         1 <0>         0.0889
     52 H25       -15.1624    0.2062   -2.5662 H         1 <0>         0.0884
     53 H26       -14.3188    0.9384   -4.7617 H         1 <0>         0.1131
     54 H27       -13.4667    2.3034   -3.9989 H         1 <0>         0.0888
     55 H28       -11.9200    0.4100   -4.4176 H         1 <0>         0.1309
     56 H29       -12.9562   -0.6532   -3.4367 H         1 <0>         0.1270
     57 H30       -15.5550    3.1991   -3.0273 H         1 <0>         0.0621
     58 H31       -16.4706    1.8970   -3.8239 H         1 <0>         0.0673
     59 H32       -16.6260    2.1491   -2.0688 H         1 <0>         0.0673
     60 H33       -11.6516    1.7903   -2.4701 H         1 <0>         0.4248
@<TRIPOS>BOND
     1    1    2 1
     2    1   28 1
     3    1   29 1
     4    1   30 1
     5    2    3 1
     6    2   31 1
     7    2   32 1
     8    3    4 am
     9    3   33 1
    10    4    5 2
    11    4    6 1
    12    6   11 1
    13    6    7 1
    14    6   34 1
    15    7    8 1
    16    7   35 1
    17    7   36 1
    18    8    9 1
    19    8   37 1
    20    8   38 1
    21    9   10 1
    22    9   39 1
    23    9   40 1
    24   10   11 1
    25   10   12 am
    26   11   41 1
    27   11   42 1
    28   12   13 2
    29   12   14 am
    30   14   15 1
    31   14   43 1
    32   15   20 ar
    33   15   16 ar
    34   16   17 ar
    35   16   44 1
    36   17   18 ar
    37   17   45 1
    38   18   19 ar
    39   18   21 1
    40   19   20 ar
    41   19   46 1
    42   20   47 1
    43   21   26 1
    44   21   22 1
    45   21   60 1
    46   22   23 1
    47   22   48 1
    48   22   49 1
    49   23   24 1
    50   23   50 1
    51   23   51 1
    52   24   25 1
    53   24   27 1
    54   24   52 1
    55   25   26 1
    56   25   53 1
    57   25   54 1
    58   26   55 1
    59   26   56 1
    60   27   57 1
    61   27   58 1
    62   27   59 1
