@<TRIPOS>MOLECULE
ZINC08602199
   54    58     0     0     0
SMALL
USER_CHARGES

@<TRIPOS>ATOM
      1 C1         -0.0187    1.5258    0.0104 C.3       1 <0>        -0.1602
      2 C2          0.0021   -0.0041    0.0020 C.3       1 <0>         0.2303
      3 H1          0.5293   -0.3651    0.8851 H         1 <0>         0.1093
      4 C3          0.7074   -0.4901   -1.2379 C.2       1 <0>         0.2638
      5 N1          0.2032   -0.4734   -2.4372 N.2       1 <0>        -0.4787
      6 C4          1.1030   -0.9822   -3.3177 C.ar      1 <0>         0.0453
      7 C5          1.0857   -1.1945   -4.6988 C.ar      1 <0>        -0.0608
      8 C6          2.1748   -1.7399   -5.3173 C.ar      1 <0>        -0.1262
      9 C7          3.3029   -2.0875   -4.5877 C.ar      1 <0>        -0.0955
     10 C8          3.3424   -1.8871   -3.2244 C.ar      1 <0>        -0.1115
     11 C9          2.2451   -1.3335   -2.5786 C.ar      1 <0>         0.0517
     12 N2          1.9664   -1.0047   -1.2671 N.pl3     1 <0>        -0.4837
     13 C10         2.8594   -1.1806   -0.1192 C.3       1 <0>         0.0712
     14 N3         -1.3723   -0.5112    0.0124 N.am      1 <0>        -0.7059
     15 C11        -2.0286   -0.6552    1.1807 C.2       1 <0>         0.5401
     16 O1         -1.4814   -0.3650    2.2235 O.2       1 <0>        -0.5197
     17 C12        -3.4424   -1.1768    1.1914 C.3       1 <0>        -0.1494
     18 S1         -4.0450   -1.2554    2.9006 S.3       1 <0>         0.1151
     19 C13        -5.6871   -1.8754    2.7456 C.2       1 <0>         0.3960
     20 N4         -6.1811   -2.1645    1.5521 N.2       1 <0>        -0.5599
     21 C14        -7.4242   -2.6355    1.4220 C.2       1 <0>         0.4369
     22 N5         -8.1997   -2.8269    2.4817 N.2       1 <0>        -0.5021
     23 C15        -7.7422   -2.5485    3.7060 C.2       1 <0>         0.3611
     24 N6         -6.4580   -2.0667    3.8559 N.pl3     1 <0>        -0.3283
     25 N7         -6.2310   -1.8668    5.2210 N.am      1 <0>        -0.5033
     26 H2         -5.4118   -1.5297    5.6161 H         1 <0>         0.4413
     27 C16        -7.3428   -2.2208    5.8949 C.2       1 <0>         0.5543
     28 O2         -7.4890   -2.1721    7.1054 O.2       1 <0>        -0.5229
     29 C17        -8.3027   -2.6420    4.9735 C.2       1 <0>        -0.3185
     30 C18        -7.9457   -2.9487    0.0730 C.ar      1 <0>        -0.1019
     31 C19        -7.1413   -2.7581   -1.0513 C.ar      1 <0>        -0.0336
     32 C20        -7.6328   -3.0522   -2.3057 C.ar      1 <0>        -0.1435
     33 C21        -8.9217   -3.5354   -2.4530 C.ar      1 <0>        -0.0543
     34 C22        -9.7258   -3.7269   -1.3452 C.ar      1 <0>        -0.1678
     35 C23        -9.2440   -3.4421   -0.0805 C.ar      1 <0>         0.1636
     36 F1        -10.0280   -3.6351    1.0027 F         1 <0>        -0.1059
     37 H3          1.0039    1.9031    0.0027 H         1 <0>         0.0715
     38 H4         -0.5459    1.8868   -0.8726 H         1 <0>         0.0743
     39 H5         -0.5289    1.8773    0.9072 H         1 <0>         0.0779
     40 H6          0.2126   -0.9283   -5.2761 H         1 <0>         0.1310
     41 H7          2.1575   -1.9024   -6.3848 H         1 <0>         0.1320
     42 H8          4.1556   -2.5183   -5.0914 H         1 <0>         0.1325
     43 H9          4.2230   -2.1590   -2.6613 H         1 <0>         0.1233
     44 H10         2.6994   -2.1661    0.3180 H         1 <0>         0.0793
     45 H11         3.8950   -1.0927   -0.4477 H         1 <0>         0.0901
     46 H12         2.6484   -0.4138    0.6262 H         1 <0>         0.0909
     47 H13        -1.8100   -0.7432   -0.8215 H         1 <0>         0.4167
     48 H14        -4.0803   -0.5097    0.6116 H         1 <0>         0.1411
     49 H15        -3.4651   -2.1740    0.7520 H         1 <0>         0.1392
     50 H16        -9.2990   -2.9887    5.2053 H         1 <0>         0.1821
     51 H17        -6.1357   -2.3805   -0.9392 H         1 <0>         0.1451
     52 H18        -7.0104   -2.9048   -3.1759 H         1 <0>         0.1399
     53 H19        -9.3007   -3.7635   -3.4382 H         1 <0>         0.1408
     54 H20       -10.7306   -4.1039   -1.4671 H         1 <0>         0.1461
@<TRIPOS>BOND
     1    1    2 1
     2    1   37 1
     3    1   38 1
     4    1   39 1
     5    2    3 1
     6    2    4 1
     7    2   14 1
     8    4   12 1
     9    4    5 2
    10    5    6 1
    11    6   11 ar
    12    6    7 ar
    13    7    8 ar
    14    7   40 1
    15    8    9 ar
    16    8   41 1
    17    9   10 ar
    18    9   42 1
    19   10   11 ar
    20   10   43 1
    21   11   12 1
    22   12   13 1
    23   13   44 1
    24   13   45 1
    25   13   46 1
    26   14   15 am
    27   14   47 1
    28   15   16 2
    29   15   17 1
    30   17   18 1
    31   17   48 1
    32   17   49 1
    33   18   19 1
    34   19   24 1
    35   19   20 2
    36   20   21 1
    37   21   22 2
    38   21   30 1
    39   22   23 1
    40   23   29 2
    41   23   24 1
    42   24   25 1
    43   25   26 1
    44   25   27 am
    45   27   28 2
    46   27   29 1
    47   29   50 1
    48   30   35 ar
    49   30   31 ar
    50   31   32 ar
    51   31   51 1
    52   32   33 ar
    53   32   52 1
    54   33   34 ar
    55   33   53 1
    56   34   35 ar
    57   34   54 1
    58   35   36 1
