@<TRIPOS>MOLECULE
ZINC37400796
   66    68     0     0     0
SMALL
USER_CHARGES

@<TRIPOS>ATOM
      1 C1         -0.5765    4.7521    1.7678 C.3       1 <0>        -0.1662
      2 C2          0.0718    3.3847    1.5420 C.3       1 <0>         0.1319
      3 N1         -0.9723    2.3676    1.3950 N.am      1 <0>        -0.7481
      4 C3         -0.6339    1.0798    1.1861 C.2       1 <0>         0.7078
      5 O1          0.5379    0.7623    1.1197 O.2       1 <0>        -0.5854
      6 N2         -1.5944    0.1441    1.0509 N.am      1 <0>        -0.6153
      7 C4         -1.2265   -1.2557    0.8238 C.3       1 <0>         0.1791
      8 C5         -1.0788   -1.9576    2.1492 C.ar      1 <0>        -0.1304
      9 C6          0.1395   -1.9484    2.8025 C.ar      1 <0>        -0.0280
     10 C7          0.2801   -2.5908    4.0185 C.ar      1 <0>        -0.2015
     11 C8         -0.8016   -3.2454    4.5854 C.ar      1 <0>         0.1450
     12 C9         -2.0281   -3.2542    3.9280 C.ar      1 <0>         0.0197
     13 C10        -2.1634   -2.6043    2.7117 C.ar      1 <0>        -0.0402
     14 O2         -3.0927   -3.8953    4.4803 O.3       1 <0>        -0.6447
     15 S1         -3.3079   -5.3063    3.9520 S.o2      1 <0>         2.6712
     16 O3         -4.5445   -5.7566    4.4881 O.2       1 <0>        -0.9327
     17 O4         -3.0554   -5.2596    2.5544 O.2       1 <0>        -0.9530
     18 C11        -2.0534   -6.3234    4.6566 C.ar      1 <0>        -0.6999
     19 C12        -0.8651   -6.5229    3.9782 C.ar      1 <0>         0.0061
     20 C13         0.1202   -7.3195    4.5278 C.ar      1 <0>        -0.1421
     21 C14        -0.0833   -7.9201    5.7632 C.ar      1 <0>         0.2019
     22 C15        -1.2776   -7.7174    6.4422 C.ar      1 <0>        -0.1659
     23 C16        -2.2571   -6.9158    5.8894 C.ar      1 <0>         0.0125
     24 N3          0.9127   -8.7282    6.3226 N.am      1 <0>        -0.6798
     25 C17         1.6630   -9.5190    5.5300 C.2       1 <0>         0.5111
     26 O5          1.5310   -9.4703    4.3253 O.2       1 <0>        -0.5175
     27 C18         2.6658  -10.4638    6.1405 C.3       1 <0>        -0.1717
     28 O6         -0.6649   -3.8782    5.7813 O.3       1 <0>        -0.3005
     29 C19         0.6231   -3.8281    6.3983 C.3       1 <0>         0.0240
     30 C20        -3.0062    0.5268    1.1308 C.3       1 <0>         0.0963
     31 C21        -3.4767    1.0290   -0.2357 C.3       1 <0>         0.0603
     32 H1         -2.8509    1.8606   -0.5594 H         1 <0>         0.0817
     33 C22        -4.9491    1.4848   -0.1476 C.3       1 <0>        -0.1521
     34 C23        -5.5309    0.9824   -1.4971 C.3       1 <0>        -0.1558
     35 C24        -4.7226   -0.3242   -1.6976 C.3       1 <0>         0.0461
     36 O7         -3.4072   -0.0333   -1.1941 O.3       1 <0>        -0.3678
     37 H2          0.2003    5.5089    1.8772 H         1 <0>         0.0760
     38 H3         -1.2078    5.0002    0.9145 H         1 <0>         0.0611
     39 H4         -1.1838    4.7214    2.6724 H         1 <0>         0.0608
     40 H5          0.6791    3.4155    0.6374 H         1 <0>         0.0668
     41 H6          0.7031    3.1367    2.3952 H         1 <0>         0.0657
     42 H7         -1.9071    2.6210    1.4479 H         1 <0>         0.3940
     43 H8         -2.0045   -1.7454    0.2381 H         1 <0>         0.0983
     44 H9         -0.2817   -1.2998    0.2821 H         1 <0>         0.0993
     45 H10         0.9835   -1.4386    2.3618 H         1 <0>         0.1462
     46 H11         1.2332   -2.5828    4.5265 H         1 <0>         0.1434
     47 H12        -3.1152   -2.6064    2.2013 H         1 <0>         0.1457
     48 H13        -0.7074   -6.0555    3.0174 H         1 <0>         0.1412
     49 H14         1.0478   -7.4755    3.9971 H         1 <0>         0.1453
     50 H15        -1.4391   -8.1834    7.4030 H         1 <0>         0.1363
     51 H16        -3.1845   -6.7544    6.4188 H         1 <0>         0.1435
     52 H17         1.0633   -8.7192    7.2808 H         1 <0>         0.4156
     53 H18         2.1880  -11.4236    6.3370 H         1 <0>         0.1008
     54 H19         3.4975  -10.6064    5.4505 H         1 <0>         0.1004
     55 H20         3.0373  -10.0446    7.0756 H         1 <0>         0.0845
     56 H21         1.3600   -4.2862    5.7386 H         1 <0>         0.0599
     57 H22         0.8971   -2.7895    6.5835 H         1 <0>         0.0615
     58 H23         0.5946   -4.3704    7.3434 H         1 <0>         0.1032
     59 H24        -3.6010   -0.3382    1.4246 H         1 <0>         0.0903
     60 H25        -3.1268    1.3186    1.8701 H         1 <0>         0.0831
     61 H26        -5.4530    1.0085    0.6934 H         1 <0>         0.0821
     62 H27        -5.0155    2.5705   -0.0767 H         1 <0>         0.0850
     63 H28        -6.5977    0.7753   -1.4121 H         1 <0>         0.0854
     64 H29        -5.3334    1.6936   -2.2991 H         1 <0>         0.0789
     65 H30        -5.1737   -1.1389   -1.1312 H         1 <0>         0.0631
     66 H31        -4.6736   -0.5800   -2.7561 H         1 <0>         0.0868
@<TRIPOS>BOND
     1    1    2 1
     2    1   37 1
     3    1   38 1
     4    1   39 1
     5    2    3 1
     6    2   40 1
     7    2   41 1
     8    3    4 am
     9    3   42 1
    10    4    5 2
    11    4    6 am
    12    6    7 1
    13    6   30 1
    14    7    8 1
    15    7   43 1
    16    7   44 1
    17    8   13 ar
    18    8    9 ar
    19    9   10 ar
    20    9   45 1
    21   10   11 ar
    22   10   46 1
    23   11   12 ar
    24   11   28 1
    25   12   13 ar
    26   12   14 1
    27   13   47 1
    28   14   15 1
    29   15   16 2
    30   15   17 2
    31   15   18 1
    32   18   23 ar
    33   18   19 ar
    34   19   20 ar
    35   19   48 1
    36   20   21 ar
    37   20   49 1
    38   21   22 ar
    39   21   24 1
    40   22   23 ar
    41   22   50 1
    42   23   51 1
    43   24   25 am
    44   24   52 1
    45   25   26 2
    46   25   27 1
    47   27   53 1
    48   27   54 1
    49   27   55 1
    50   28   29 1
    51   29   56 1
    52   29   57 1
    53   29   58 1
    54   30   31 1
    55   30   59 1
    56   30   60 1
    57   31   32 1
    58   31   36 1
    59   31   33 1
    60   33   34 1
    61   33   61 1
    62   33   62 1
    63   34   35 1
    64   34   63 1
    65   34   64 1
    66   35   36 1
    67   35   65 1
    68   35   66 1
