@<TRIPOS>MOLECULE
ZINC43640194
   33    35     0     0     0
SMALL
USER_CHARGES

@<TRIPOS>ATOM
      1 C1         -0.0187    1.5258    0.0104 C.3       1 <0>        -0.1500
      2 C2          0.0021   -0.0041    0.0020 C.3       1 <0>        -0.0445
      3 C3         -1.4117   -0.5257    0.0127 C.2       1 <0>        -0.1239
      4 C4         -2.2212   -0.8209   -1.0377 C.2       1 <0>        -0.1698
      5 C5         -3.4920   -1.2905   -0.7940 C.2       1 <0>        -0.0985
      6 C6         -3.8993   -1.4450    0.5049 C.2       1 <0>        -0.1271
      7 S1         -2.4512   -0.9222    1.4089 S.3       1 <0>         0.1117
      8 C7         -5.1966   -1.9249    1.0225 C.2       1 <0>         0.2368
      9 C8         -5.4099   -2.7234    2.2338 C.2       1 <0>        -0.3088
     10 C9         -6.7691   -2.9407    2.3304 C.2       1 <0>         0.3735
     11 O1         -7.3602   -2.3408    1.2857 O.3       1 <0>        -0.1012
     12 N1         -6.3779   -1.7119    0.4875 N.2       1 <0>        -0.3032
     13 N2         -7.4080   -3.6505    3.3258 N.pl3     1 <0>        -0.8073
     14 C10        -4.3684   -3.2041    3.1712 C.ar      1 <0>         0.0184
     15 C11        -3.4093   -4.1209    2.7414 C.ar      1 <0>        -0.0940
     16 C12        -2.4413   -4.5649    3.6187 C.ar      1 <0>        -0.0856
     17 C13        -2.4210   -4.1021    4.9232 C.ar      1 <0>        -0.0898
     18 C14        -3.3708   -3.1924    5.3553 C.ar      1 <0>        -0.0871
     19 C15        -4.3399   -2.7372    4.4851 C.ar      1 <0>        -0.1083
     20 Br1        -1.0911   -4.7152    6.1196 Br        1 <0>        -0.0502
     21 H1          1.0039    1.9031    0.0027 H         1 <0>         0.0667
     22 H2         -0.5459    1.8868   -0.8726 H         1 <0>         0.0603
     23 H3         -0.5289    1.8773    0.9072 H         1 <0>         0.0586
     24 H4          0.5123   -0.3556   -0.8948 H         1 <0>         0.0905
     25 H5          0.5293   -0.3651    0.8851 H         1 <0>         0.0821
     26 H6         -1.8722   -0.6884   -2.0512 H         1 <0>         0.1396
     27 H7         -4.1554   -1.5322   -1.6113 H         1 <0>         0.1392
     28 H8         -6.8925   -4.0506    4.0435 H         1 <0>         0.4281
     29 H9         -8.3728   -3.7495    3.3080 H         1 <0>         0.4155
     30 H10        -3.4244   -4.4830    1.7240 H         1 <0>         0.1297
     31 H11        -1.6983   -5.2751    3.2872 H         1 <0>         0.1341
     32 H12        -3.3504   -2.8350    6.3742 H         1 <0>         0.1344
     33 H13        -5.0777   -2.0241    4.8220 H         1 <0>         0.1301
@<TRIPOS>BOND
     1    1    2 1
     2    1   21 1
     3    1   22 1
     4    1   23 1
     5    2    3 1
     6    2   24 1
     7    2   25 1
     8    3    7 1
     9    3    4 2
    10    4    5 1
    11    4   26 1
    12    5    6 2
    13    5   27 1
    14    6    7 1
    15    6    8 1
    16    8   12 2
    17    8    9 1
    18    9   10 2
    19    9   14 1
    20   10   11 1
    21   10   13 1
    22   11   12 1
    23   13   28 1
    24   13   29 1
    25   14   19 ar
    26   14   15 ar
    27   15   16 ar
    28   15   30 1
    29   16   17 ar
    30   16   31 1
    31   17   18 ar
    32   17   20 1
    33   18   19 ar
    34   18   32 1
    35   19   33 1
