@<TRIPOS>MOLECULE
ZINC02638663
   64    68     0     0     0
SMALL
USER_CHARGES

@<TRIPOS>ATOM
      1 C1          1.0533   -0.4471   -0.8060 C.ar      1 <0>        -0.1425
      2 C2          2.2365    0.2649   -0.8312 C.ar      1 <0>         0.0041
      3 C3          2.3649    1.4219   -0.0847 C.ar      1 <0>        -0.6567
      4 C4          1.3097    1.8700    0.6886 C.ar      1 <0>         0.0034
      5 C5          0.1238    1.1628    0.7177 C.ar      1 <0>        -0.1647
      6 C6         -0.0082    0.0003   -0.0304 C.ar      1 <0>         0.2011
      7 N1         -1.2084   -0.7185   -0.0031 N.am      1 <0>        -0.6713
      8 C7         -1.1924   -2.0614   -0.1171 C.2       1 <0>         0.5290
      9 O1         -0.1351   -2.6549   -0.1468 O.2       1 <0>        -0.4993
     10 C8         -2.4883   -2.8254   -0.2075 C.3       1 <0>        -0.1230
     11 H1         -3.0701   -2.5019   -1.0706 H         1 <0>         0.1322
     12 C9         -3.3068   -2.6830    1.0966 C.3       1 <0>        -0.1454
     13 C10        -3.9435   -4.0423    1.2853 C.2       1 <0>         0.5194
     14 O2         -4.8765   -4.2759    2.0243 O.2       1 <0>        -0.4978
     15 N2         -3.3251   -4.9535    0.5144 N.am      1 <0>        -0.5552
     16 C11        -2.2303   -4.3478   -0.2539 C.3       1 <0>         0.1114
     17 C12        -3.6801   -6.3073    0.4514 C.ar      1 <0>         0.1683
     18 C13        -2.9025   -7.1960   -0.2789 C.ar      1 <0>        -0.1494
     19 C14        -3.2526   -8.5307   -0.3419 C.ar      1 <0>        -0.0835
     20 C15        -4.3804   -8.9876    0.3239 C.ar      1 <0>         0.0277
     21 C16        -5.1595   -8.1007    1.0578 C.ar      1 <0>         0.0809
     22 C17        -4.8057   -6.7618    1.1236 C.ar      1 <0>        -0.1513
     23 O3         -6.2653   -8.5319    1.7241 O.3       1 <0>        -0.3031
     24 C18        -6.7952   -9.8042    1.3367 C.3       1 <0>         0.0199
     25 C19        -5.6302  -10.7974    1.2294 C.3       1 <0>         0.0202
     26 O4         -4.7118  -10.3064    0.2469 O.3       1 <0>        -0.3067
     27 S1          3.8764    2.3267   -0.1186 S.o2      1 <0>         2.6431
     28 O5          3.9297    3.0739    1.0889 O.2       1 <0>        -0.9811
     29 O6          4.8928    1.4057   -0.4900 O.2       1 <0>        -0.9718
     30 N3          3.7611    3.4267   -1.3511 N.2       1 <0>        -0.9955
     31 C20         4.7459    4.2280   -1.5969 C.2       1 <0>         0.5689
     32 C21         6.0184    4.1573   -0.7561 C.3       1 <0>        -0.1681
     33 C22         7.1144    3.6091   -1.6446 C.3       1 <0>        -0.1200
     34 C23         7.8611    4.6901   -2.4284 C.3       1 <0>        -0.1204
     35 C24         6.9321    5.7493   -3.0227 C.3       1 <0>        -0.1511
     36 C25         5.6803    5.1660   -3.6414 C.3       1 <0>         0.1281
     37 N4          4.6559    5.1044   -2.5777 N.pl3     1 <0>        -0.7279
     38 H2          0.9522   -1.3484   -1.3924 H         1 <0>         0.1462
     39 H3          3.0624   -0.0824   -1.4342 H         1 <0>         0.1450
     40 H4          1.4133    2.7737    1.2708 H         1 <0>         0.1455
     41 H5         -0.6998    1.5130    1.3222 H         1 <0>         0.1396
     42 H6         -2.0520   -0.2504    0.0978 H         1 <0>         0.4181
     43 H7         -2.6508   -2.4494    1.9352 H         1 <0>         0.1167
     44 H8         -4.0724   -1.9154    0.9846 H         1 <0>         0.1216
     45 H9         -2.2505   -4.7026   -1.2844 H         1 <0>         0.0998
     46 H10        -1.2711   -4.5821    0.2077 H         1 <0>         0.1041
     47 H11        -2.0236   -6.8434   -0.7982 H         1 <0>         0.1375
     48 H12        -2.6469   -9.2201   -0.9113 H         1 <0>         0.1418
     49 H13        -5.4086   -6.0716    1.6951 H         1 <0>         0.1667
     50 H14        -7.5056  -10.1506    2.0873 H         1 <0>         0.1243
     51 H15        -7.2934   -9.7164    0.3712 H         1 <0>         0.0792
     52 H16        -5.1279  -10.8804    2.1932 H         1 <0>         0.0782
     53 H17        -6.0066  -11.7741    0.9251 H         1 <0>         0.1237
     54 H18         6.2880    5.1540   -0.4067 H         1 <0>         0.1188
     55 H19         5.8643    3.4940    0.0950 H         1 <0>         0.0832
     56 H20         7.8303    3.0703   -1.0240 H         1 <0>         0.0830
     57 H21         6.6721    2.9075   -2.3520 H         1 <0>         0.0709
     58 H22         8.5701    5.1802   -1.7612 H         1 <0>         0.0697
     59 H23         8.4156    4.2160   -3.2382 H         1 <0>         0.0709
     60 H24         6.6419    6.4429   -2.2335 H         1 <0>         0.0737
     61 H25         7.4762    6.3021   -3.7885 H         1 <0>         0.0781
     62 H26         5.3354    5.8047   -4.4545 H         1 <0>         0.0990
     63 H27         5.8839    4.1629   -4.0164 H         1 <0>         0.0785
     64 H28         3.9070    5.7203   -2.6029 H         1 <0>         0.4142
@<TRIPOS>BOND
     1    1    6 ar
     2    1    2 ar
     3    1   38 1
     4    2    3 ar
     5    2   39 1
     6    3    4 ar
     7    3   27 1
     8    4    5 ar
     9    4   40 1
    10    5    6 ar
    11    5   41 1
    12    6    7 1
    13    7    8 am
    14    7   42 1
    15    8    9 2
    16    8   10 1
    17   10   11 1
    18   10   16 1
    19   10   12 1
    20   12   13 1
    21   12   43 1
    22   12   44 1
    23   13   14 2
    24   13   15 am
    25   15   16 1
    26   15   17 1
    27   16   45 1
    28   16   46 1
    29   17   22 ar
    30   17   18 ar
    31   18   19 ar
    32   18   47 1
    33   19   20 ar
    34   19   48 1
    35   20   26 1
    36   20   21 ar
    37   21   22 ar
    38   21   23 1
    39   22   49 1
    40   23   24 1
    41   24   25 1
    42   24   50 1
    43   24   51 1
    44   25   26 1
    45   25   52 1
    46   25   53 1
    47   27   28 2
    48   27   29 2
    49   27   30 1
    50   30   31 2
    51   31   37 1
    52   31   32 1
    53   32   33 1
    54   32   54 1
    55   32   55 1
    56   33   34 1
    57   33   56 1
    58   33   57 1
    59   34   35 1
    60   34   58 1
    61   34   59 1
    62   35   36 1
    63   35   60 1
    64   35   61 1
    65   36   37 1
    66   36   62 1
    67   36   63 1
    68   37   64 1
