@<TRIPOS>MOLECULE
ZINC09453418
   64    69     0     0     0
SMALL
USER_CHARGES

@<TRIPOS>ATOM
      1 C1         -0.0184    1.5028    0.0103 C.3       1 <0>        -0.1261
      2 C2          0.0021   -0.0041    0.0020 C.2       1 <0>        -0.1404
      3 C3          0.0058   -0.6848   -1.1781 C.2       1 <0>         0.0442
      4 C4          0.0233   -2.0870   -1.1669 C.2       1 <0>        -0.1369
      5 C5          0.0300   -2.7577    0.0060 C.2       1 <0>         0.1395
      6 N1          0.0182   -2.0877    1.1937 N.am      1 <0>        -0.3919
      7 C6          0.0233   -0.7203    1.2130 C.cat     1 <0>         0.4380
      8 N2          0.0556   -0.0548    2.3680 N.pl3     1 <0>        -0.5511
      9 C7          0.0630   -0.7049    3.5177 C.2       1 <0>         0.4516
     10 C8          0.0158   -2.0986    3.5619 C.2       1 <0>        -0.2784
     11 C9          0.0025   -2.7878    2.3480 C.2       1 <0>         0.5308
     12 O1         -0.0073   -4.0092    2.3302 O.2       1 <0>        -0.4482
     13 C10        -0.0796   -2.8418    4.8536 C.3       1 <0>        -0.0171
     14 C11         0.3966   -2.0784    6.0830 C.3       1 <0>        -0.1016
     15 C12         1.0111   -0.7278    5.7147 C.3       1 <0>         0.2352
     16 H1          1.9726   -0.9163    5.2370 H         1 <0>         0.1232
     17 N3          0.1513   -0.0570    4.7450 N.pl3     1 <0>        -0.5822
     18 C13        -0.5858    1.1569    5.0132 C.3       1 <0>         0.1180
     19 C14         0.1666    2.1170    5.9123 C.3       1 <0>        -0.0978
     20 C15         0.8764    1.4133    7.0327 C.ar      1 <0>        -0.0548
     21 C16         1.2564    0.1049    6.9338 C.ar      1 <0>        -0.1152
     22 C17         1.9112   -0.4820    8.0095 C.ar      1 <0>        -0.1323
     23 C18         2.1549    0.2371    9.1612 C.ar      1 <0>        -0.0991
     24 C19         1.7440    1.5540    9.2482 C.ar      1 <0>        -0.0924
     25 C20         1.1350    2.1276    8.1947 C.ar      1 <0>        -0.1067
     26 C21        -0.7807   -1.8399    6.9943 C.2       1 <0>         0.5313
     27 O2         -1.7137   -1.1825    6.5855 O.2       1 <0>        -0.4666
     28 N4         -0.8313   -2.3293    8.2387 N.am      1 <0>        -0.6590
     29 C22         0.1652   -3.0620    8.7583 C.2       1 <0>         0.7075
     30 N5          1.2707   -3.3373    8.0498 N.am      1 <0>        -0.5580
     31 C23         1.4383   -2.9037    6.7952 C.2       1 <0>         0.5265
     32 O3          2.4627   -3.1843    6.2108 O.2       1 <0>        -0.4602
     33 C24         2.3291   -4.1379    8.6704 C.3       1 <0>         0.1044
     34 C25         2.0786   -5.6207    8.3886 C.3       1 <0>        -0.1095
     35 C26         3.2476   -6.4470    8.9286 C.3       1 <0>        -0.1457
     36 C27         0.7839   -6.0588    9.0761 C.3       1 <0>        -0.1459
     37 O4          0.0644   -3.4848    9.8928 O.2       1 <0>        -0.4874
     38 H2          1.0042    1.8801    0.0026 H         1 <0>         0.1032
     39 H3         -0.5455    1.8639   -0.8728 H         1 <0>         0.1105
     40 H4         -0.5286    1.8543    0.9071 H         1 <0>         0.0745
     41 H5         -0.0050   -0.1485   -2.1155 H         1 <0>         0.1853
     42 H6          0.0312   -2.6326   -2.0989 H         1 <0>         0.1928
     43 H7          0.0445   -3.8376    0.0029 H         1 <0>         0.2165
     44 H8         -1.1204   -3.1259    5.0090 H         1 <0>         0.1070
     45 H9          0.5130   -3.7527    4.7689 H         1 <0>         0.1132
     46 H10        -0.7985    1.6550    4.0673 H         1 <0>         0.0803
     47 H11        -1.5305    0.8960    5.4904 H         1 <0>         0.0982
     48 H12         0.8998    2.6590    5.3151 H         1 <0>         0.0913
     49 H13        -0.5394    2.8316    6.3353 H         1 <0>         0.1083
     50 H14         2.2323   -1.5111    7.9434 H         1 <0>         0.1220
     51 H15         2.6646   -0.2274    9.9923 H         1 <0>         0.1347
     52 H16         1.9287    2.1211   10.1486 H         1 <0>         0.1369
     53 H17         0.8189    3.1574    8.2719 H         1 <0>         0.1322
     54 H18         3.2946   -3.8474    8.2562 H         1 <0>         0.1076
     55 H19         2.3295   -3.9676    9.7470 H         1 <0>         0.1110
     56 H20         1.9897   -5.7763    7.3134 H         1 <0>         0.0749
     57 H21         3.3365   -6.2914   10.0037 H         1 <0>         0.0627
     58 H22         3.0692   -7.5034    8.7278 H         1 <0>         0.0658
     59 H23         4.1700   -6.1348    8.4388 H         1 <0>         0.0606
     60 H24         0.6054   -7.1152    8.8753 H         1 <0>         0.0597
     61 H25         0.8728   -5.9033   10.1512 H         1 <0>         0.0687
     62 H26        -0.0490   -5.4702    8.6914 H         1 <0>         0.0421
     63 H27        -1.6136   -2.1483    8.7827 H         1 <0>         0.4410
     64 H28         0.0743    0.9150    2.3638 H         1 <0>         0.4528
@<TRIPOS>BOND
     1    1    2 1
     2    1   38 1
     3    1   39 1
     4    1   40 1
     5    2    7 1
     6    2    3 2
     7    3    4 1
     8    3   41 1
     9    4    5 2
    10    4   42 1
    11    5    6 1
    12    5   43 1
    13    6   11 am
    14    6    7 1
    15    7    8 2
    16    8    9 1
    17    8   64 1
    18    9   17 1
    19    9   10 2
    20   10   11 1
    21   10   13 1
    22   11   12 2
    23   13   44 1
    24   13   45 1
    25   13   14 1
    26   14   31 1
    27   14   15 1
    28   14   26 1
    29   15   16 1
    30   15   21 1
    31   15   17 1
    32   17   18 1
    33   18   19 1
    34   18   46 1
    35   18   47 1
    36   19   20 1
    37   19   48 1
    38   19   49 1
    39   20   25 ar
    40   20   21 ar
    41   21   22 ar
    42   22   23 ar
    43   22   50 1
    44   23   24 ar
    45   23   51 1
    46   24   25 ar
    47   24   52 1
    48   25   53 1
    49   26   27 2
    50   26   28 am
    51   28   63 1
    52   28   29 am
    53   29   37 2
    54   29   30 am
    55   30   31 am
    56   30   33 1
    57   31   32 2
    58   33   34 1
    59   33   54 1
    60   33   55 1
    61   34   35 1
    62   34   36 1
    63   34   56 1
    64   35   57 1
    65   35   58 1
    66   35   59 1
    67   36   60 1
    68   36   61 1
    69   36   62 1
