@<TRIPOS>MOLECULE
ZINC04908500
   45    48     0     0     0
SMALL
USER_CHARGES
methyl-[2-(3-nitrophenyl)vinyl]BLAHone
@<TRIPOS>ATOM
      1 C1         -0.4429    2.4164   -2.5968 C.3       1 <0>        -0.0406
      2 C2         -2.0431    3.7657   -1.3787 C.3       1 <0>        -0.0008
      3 C3         -3.1261    3.6955   -0.2986 C.3       1 <0>        -0.0904
      4 C4         -2.4586    3.3311    1.0230 C.2       1 <0>         0.0061
      5 C5         -1.2170    2.7911    1.0270 C.2       1 <0>        -0.3191
      6 S1         -0.8378    2.5305    2.7375 S.3       1 <0>         0.2421
      7 C6         -2.2897    3.1209    3.4270 C.2       1 <0>         0.1486
      8 C7         -3.0650    3.5244    2.3279 C.2       1 <0>        -0.2894
      9 C8         -4.3987    4.1036    2.6106 C.2       1 <0>         0.5966
     10 O1         -5.0575    4.6347    1.7355 O.2       1 <0>        -0.5239
     11 N1         -4.8531    4.0185    3.8788 N.am      1 <0>        -0.7324
     12 C9         -4.1839    3.2574    4.9282 C.3       1 <0>         0.4017
     13 H1         -4.3992    3.7154    5.8936 H         1 <0>         0.1260
     14 N2         -2.7242    3.2290    4.7222 N.pl3     1 <0>        -0.6791
     15 C10        -4.7104    1.8454    4.9238 C.2       1 <0>        -0.1824
     16 C11        -5.2206    1.3248    6.0311 C.2       1 <0>        -0.0679
     17 C12        -5.1144    2.0586    7.3099 C.ar      1 <0>        -0.0716
     18 C13        -3.9419    2.7451    7.6285 C.ar      1 <0>        -0.0772
     19 C14        -3.8507    3.4315    8.8216 C.ar      1 <0>        -0.1098
     20 C15        -4.9148    3.4319    9.7061 C.ar      1 <0>        -0.0465
     21 C16        -6.0779    2.7494    9.3983 C.ar      1 <0>        -0.0332
     22 C17        -6.1837    2.0629    8.2060 C.ar      1 <0>        -0.0379
     23 N3         -7.2112    2.7551   10.3502 N.pl3     1 <0>         0.0204
     24 O2         -8.2359    2.1543   10.0807 O.2       1 <0>        -0.1479
     25 O3         -7.1193    3.3607   11.4030 O.3       1 <0>        -0.1451
     26 C18        -0.3751    2.4892   -0.1725 C.3       1 <0>         0.1130
     27 H2          0.1485    1.5016   -2.5592 H         1 <0>         0.1247
     28 H3         -1.1090    2.3832   -3.4589 H         1 <0>         0.1257
     29 H4          0.2221    3.2756   -2.6842 H         1 <0>         0.1251
     30 H5         -1.3968    4.6223   -1.1873 H         1 <0>         0.1336
     31 H6         -2.5152    3.8801   -2.3544 H         1 <0>         0.1379
     32 H7         -3.6178    4.6641   -0.2074 H         1 <0>         0.1354
     33 H8         -3.8600    2.9342   -0.5628 H         1 <0>         0.1072
     34 H9         -5.6701    4.4900    4.1051 H         1 <0>         0.4166
     35 H10        -2.1033    3.2843    5.4653 H         1 <0>         0.4283
     36 H11        -4.6719    1.2575    4.0187 H         1 <0>         0.1320
     37 H12        -5.7140    0.3646    5.9989 H         1 <0>         0.1460
     38 H13        -3.1091    2.7421    6.9408 H         1 <0>         0.1338
     39 H14        -2.9454    3.9666    9.0676 H         1 <0>         0.1552
     40 H15        -4.8367    3.9671   10.6409 H         1 <0>         0.1612
     41 H16        -7.0921    1.5298    7.9672 H         1 <0>         0.1615
     42 H17         0.0624    1.4957   -0.0738 H         1 <0>         0.1386
     43 H18         0.4172    3.2324   -0.2621 H         1 <0>         0.1412
     44 N4         -1.2558    2.5159   -1.3654 N.4       1 <0>        -0.3957
     45 H19        -1.8986    1.7163   -1.3244 H         1 <0>         0.4326
@<TRIPOS>BOND
     1    1   27 1
     2    1   28 1
     3    1   29 1
     4    1   44 1
     5    2    3 1
     6    2   30 1
     7    2   31 1
     8    2   44 1
     9    3    4 1
    10    3   32 1
    11    3   33 1
    12    4    8 1
    13    4    5 2
    14    5    6 1
    15    5   26 1
    16    6    7 1
    17    7   14 1
    18    7    8 2
    19    8    9 1
    20    9   10 2
    21    9   11 am
    22   11   12 1
    23   11   34 1
    24   12   13 1
    25   12   14 1
    26   12   15 1
    27   14   35 1
    28   15   16 2
    29   15   36 1
    30   16   17 1
    31   16   37 1
    32   17   22 ar
    33   17   18 ar
    34   18   19 ar
    35   18   38 1
    36   19   20 ar
    37   19   39 1
    38   20   21 ar
    39   20   40 1
    40   21   22 ar
    41   21   23 1
    42   22   41 1
    43   23   24 2
    44   23   25 1
    45   26   42 1
    46   26   43 1
    47   26   44 1
    48   44   45 1
