@<TRIPOS>MOLECULE
ZINC65595771
   46    47     0     0     0
SMALL
USER_CHARGES

@<TRIPOS>ATOM
      1 C1         -0.0669    1.5484    0.0221 C.3       1 <0>        -0.1526
      2 C2         -0.0340    0.0188    0.0115 C.3       1 <0>        -0.1253
      3 C3         -1.4651   -0.5222    0.0202 C.3       1 <0>        -0.1118
      4 C4         -1.4322   -2.0518    0.0095 C.3       1 <0>        -0.1381
      5 C5         -2.8633   -2.5928    0.0182 C.3       1 <0>         0.1614
      6 C6         -2.8317   -4.0952    0.1316 C.2       1 <0>         0.4923
      7 O1         -2.9783   -4.7813   -0.8578 O.2       1 <0>        -0.4585
      8 N1         -2.6405   -4.6765    1.3324 N.am      1 <0>        -0.6722
      9 C7         -2.7263   -6.0686    1.4581 C.ar      1 <0>         0.1599
     10 C8         -3.4790   -6.8026    0.5530 C.ar      1 <0>        -0.1504
     11 C9         -3.5618   -8.1816    0.6805 C.ar      1 <0>         0.1981
     12 C10        -2.8915   -8.8244    1.7132 C.ar      1 <0>        -0.1508
     13 C11        -2.1424   -8.0921    2.6144 C.ar      1 <0>        -0.0977
     14 C12        -2.0524   -6.7177    2.4869 C.ar      1 <0>         0.0395
     15 F1         -1.3143   -6.0049    3.3658 F         1 <0>        -0.1370
     16 N2         -4.3214   -8.9251   -0.2315 N.am      1 <0>        -0.5737
     17 C13        -4.5069  -10.3897   -0.2197 C.3       1 <0>         0.0573
     18 C14        -5.7047  -10.5756   -1.1813 C.3       1 <0>         0.0389
     19 O2         -5.6225   -9.3898   -1.9958 O.3       1 <0>        -0.3188
     20 C15        -5.0181   -8.4318   -1.2726 C.2       1 <0>         0.6400
     21 O3         -5.0905   -7.2469   -1.5321 O.2       1 <0>        -0.4787
     22 N3         -3.5373   -2.2110   -1.2252 N.am      1 <0>        -0.7334
     23 C16        -3.0430   -2.6167   -2.4117 C.2       1 <0>         0.7123
     24 O4         -2.0378   -3.2996   -2.4500 O.2       1 <0>        -0.5648
     25 N4         -3.6631   -2.2655   -3.5556 N.am      1 <0>        -0.8679
     26 H1          0.9527    1.9338    0.0159 H         1 <0>         0.0541
     27 H2         -0.5961    1.9066   -0.8609 H         1 <0>         0.0527
     28 H3         -0.5807    1.8945    0.9190 H         1 <0>         0.0536
     29 H4          0.4799   -0.3273   -0.8854 H         1 <0>         0.0620
     30 H5          0.4953   -0.3394    0.8945 H         1 <0>         0.0620
     31 H6         -1.9789   -0.1761    0.9170 H         1 <0>         0.0620
     32 H7         -1.9943   -0.1640   -0.8629 H         1 <0>         0.0637
     33 H8         -0.9183   -2.3979   -0.8873 H         1 <0>         0.0987
     34 H9         -0.9029   -2.4100    0.8925 H         1 <0>         0.0744
     35 H10        -3.4043   -2.1757    0.8676 H         1 <0>         0.1136
     36 H11        -2.4434   -4.1306    2.1096 H         1 <0>         0.4140
     37 H12        -4.0000   -6.3013   -0.2493 H         1 <0>         0.1892
     38 H13        -2.9561   -9.8979    1.8122 H         1 <0>         0.1376
     39 H14        -1.6227   -8.5943    3.4169 H         1 <0>         0.1472
     40 H15        -3.6205  -10.8962   -0.6016 H         1 <0>         0.1009
     41 H16        -4.7551  -10.7414    0.7817 H         1 <0>         0.1092
     42 H17        -5.5816  -11.4733   -1.7872 H         1 <0>         0.1278
     43 H18        -6.6449  -10.6052   -0.6307 H         1 <0>         0.0987
     44 H19        -4.3392   -1.6662   -1.1947 H         1 <0>         0.4016
     45 H20        -4.4650   -1.7207   -3.5250 H         1 <0>         0.3941
     46 H21        -3.3073   -2.5575   -4.4095 H         1 <0>         0.4152
@<TRIPOS>BOND
     1    1    2 1
     2    1   26 1
     3    1   27 1
     4    1   28 1
     5    2    3 1
     6    2   29 1
     7    2   30 1
     8    3    4 1
     9    3   31 1
    10    3   32 1
    11    4    5 1
    12    4   33 1
    13    4   34 1
    14    5    6 1
    15    5   22 1
    16    5   35 1
    17    6    7 2
    18    6    8 am
    19    8    9 1
    20    8   36 1
    21    9   14 ar
    22    9   10 ar
    23   10   11 ar
    24   10   37 1
    25   11   12 ar
    26   11   16 1
    27   12   13 ar
    28   12   38 1
    29   13   14 ar
    30   13   39 1
    31   14   15 1
    32   16   20 am
    33   16   17 1
    34   17   18 1
    35   17   40 1
    36   17   41 1
    37   18   19 1
    38   18   42 1
    39   18   43 1
    40   19   20 1
    41   20   21 2
    42   22   23 am
    43   22   44 1
    44   23   24 2
    45   23   25 am
    46   25   45 1
    47   25   46 1
