@<TRIPOS>MOLECULE
ZINC04862793
   41    43     0     0     0
SMALL
USER_CHARGES
3-[2-(2-hydroxy-5-nitro-phenyl)-2-oxo-ethyl]-6,7-dimethoxy-3H-isobenzofuran-1-one
@<TRIPOS>ATOM
      1 C1          2.2576    3.7152    3.2171 C.3       1 <0>         0.0225
      2 O1          1.2792    2.9323    2.5303 O.3       1 <0>        -0.3024
      3 C2          0.2027    3.5930    2.0261 C.ar      1 <0>         0.1035
      4 C3          0.0966    4.9643    2.1863 C.ar      1 <0>        -0.1595
      5 C4         -1.0008    5.6443    1.6807 C.ar      1 <0>        -0.0593
      6 C5         -1.9876    4.9617    1.0120 C.ar      1 <0>        -0.1136
      7 C6         -1.8959    3.5762    0.8350 C.ar      1 <0>        -0.1772
      8 C7         -0.7873    2.8901    1.3460 C.ar      1 <0>         0.1489
      9 O2         -0.6816    1.5467    1.1837 O.3       1 <0>        -0.3175
     10 C8         -0.0127    1.0858    0.0080 C.3       1 <0>         0.0418
     11 C9         -3.0850    3.1314    0.0921 C.2       1 <0>         0.5206
     12 O3         -3.3149    1.9817   -0.2267 O.2       1 <0>        -0.4421
     13 O4         -3.8807    4.1787   -0.1832 O.3       1 <0>        -0.2907
     14 C10        -3.2775    5.3868    0.3558 C.3       1 <0>         0.1358
     15 H1         -3.0730    6.0937   -0.4482 H         1 <0>         0.1329
     16 C11        -4.2092    6.0229    1.3895 C.3       1 <0>        -0.1631
     17 C12        -5.4568    6.5175    0.7041 C.2       1 <0>         0.3985
     18 O5         -5.5880    6.3753   -0.4934 O.2       1 <0>        -0.4229
     19 C13        -6.5134    7.1714    1.4855 C.ar      1 <0>        -0.3096
     20 C14        -6.3668    7.3380    2.8681 C.ar      1 <0>         0.0414
     21 C15        -7.3621    7.9527    3.5941 C.ar      1 <0>        -0.1825
     22 C16        -8.5095    8.4081    2.9635 C.ar      1 <0>        -0.0099
     23 C17        -8.6685    8.2511    1.6012 C.ar      1 <0>        -0.2346
     24 C18        -7.6755    7.6393    0.8507 C.ar      1 <0>         0.3291
     25 N1         -7.2058    8.1287    5.0555 N.pl3     1 <0>         0.0668
     26 O6         -6.1987    7.7301    5.6126 O.2       1 <0>        -0.2227
     27 O7         -8.0843    8.6721    5.7008 O.3       1 <0>        -0.2192
     28 H2          1.7931    4.2115    4.0692 H         1 <0>         0.0601
     29 H3          3.0608    3.0670    3.5676 H         1 <0>         0.1039
     30 H4          2.6653    4.4643    2.5383 H         1 <0>         0.0577
     31 H5          0.8698    5.5059    2.7110 H         1 <0>         0.1477
     32 H6         -1.0799    6.7133    1.8126 H         1 <0>         0.1458
     33 H7          0.0021   -0.0041    0.0020 H         1 <0>         0.0981
     34 H8          1.0099    1.4631    0.0003 H         1 <0>         0.0470
     35 H9         -0.5399    1.4469   -0.8751 H         1 <0>         0.0486
     36 H10        -4.4555    5.3424    2.0796 H         1 <0>         0.0938
     37 H11        -3.7020    6.8599    1.8693 H         1 <0>         0.1175
     38 H12        -5.4749    6.9846    3.3640 H         1 <0>         0.1314
     39 H13        -9.2843    8.8894    3.5419 H         1 <0>         0.1284
     40 H14        -9.5656    8.6093    1.1183 H         1 <0>         0.1262
     41 O8         -7.8278    7.4896   -0.4883 O.3       1 <0>        -0.6212
@<TRIPOS>BOND
     1    1    2 1
     2    1   28 1
     3    1   29 1
     4    1   30 1
     5    2    3 1
     6    3    8 ar
     7    3    4 ar
     8    4    5 ar
     9    4   31 1
    10    5    6 ar
    11    5   32 1
    12    6   14 1
    13    6    7 ar
    14    7    8 ar
    15    7   11 1
    16    8    9 1
    17    9   10 1
    18   10   33 1
    19   10   34 1
    20   10   35 1
    21   11   12 2
    22   11   13 1
    23   13   14 1
    24   14   15 1
    25   14   16 1
    26   16   17 1
    27   16   36 1
    28   16   37 1
    29   17   18 2
    30   17   19 1
    31   19   24 ar
    32   19   20 ar
    33   20   21 ar
    34   20   38 1
    35   21   22 ar
    36   21   25 1
    37   22   23 ar
    38   22   39 1
    39   23   24 ar
    40   23   40 1
    41   24   41 1
    42   25   26 2
    43   25   27 1
