@<TRIPOS>MOLECULE
ZINC05447142
   49    51     0     0     0
SMALL
USER_CHARGES

@<TRIPOS>ATOM
      1 C1          3.4797   -2.6585   -3.9048 C.3       1 <0>        -0.1830
      2 C2          3.0757   -3.0196   -2.4740 C.3       1 <0>         0.0750
      3 H1          3.6756   -3.8612   -2.1277 H         1 <0>         0.1089
      4 C3          3.3079   -1.8136   -1.5566 C.3       1 <0>         0.0797
      5 N1          2.3543   -0.7566   -1.9292 N.am      1 <0>        -0.6246
      6 C4          0.9318   -1.1165   -2.0407 C.3       1 <0>         0.0886
      7 C5          0.8154   -2.3564   -2.9345 C.3       1 <0>         0.0689
      8 H2          1.0949   -2.0968   -3.9556 H         1 <0>         0.0665
      9 O1          1.6914   -3.3754   -2.4440 O.3       1 <0>        -0.3767
     10 C6         -0.6265   -2.8678   -2.9138 C.3       1 <0>        -0.1408
     11 C7          2.7713    0.5039   -2.1610 C.2       1 <0>         0.5910
     12 O2          1.9858    1.3394   -2.5655 O.2       1 <0>        -0.5180
     13 C8          4.1797    0.8696   -1.9242 C.ar      1 <0>        -0.2103
     14 C9          4.8177    0.4821   -0.7430 C.ar      1 <0>        -0.0453
     15 C10         6.1338    0.8270   -0.5277 C.ar      1 <0>        -0.2297
     16 C11         6.8306    1.5580   -1.4771 C.ar      1 <0>        -0.0440
     17 C12         6.2149    1.9486   -2.6482 C.ar      1 <0>        -0.2648
     18 C13         4.8898    1.6044   -2.8863 C.ar      1 <0>         0.3253
     19 N2          4.2695    1.9910   -4.0671 N.2       1 <0>        -1.0559
     20 S1          5.1115    2.8579   -5.1994 S.o2      1 <0>         2.5981
     21 O3          5.3975    4.1207   -4.6139 O.2       1 <0>        -1.0145
     22 O4          6.1301    1.9990   -5.6934 O.2       1 <0>        -1.0195
     23 C14         4.0142    3.1630   -6.5437 C.ar      1 <0>        -0.6149
     24 C15         3.9316    2.2600   -7.5874 C.ar      1 <0>         0.0250
     25 C16         3.0709    2.4994   -8.6419 C.ar      1 <0>        -0.1412
     26 C17         2.2920    3.6416   -8.6529 C.ar      1 <0>        -0.0214
     27 C18         2.3738    4.5439   -7.6091 C.ar      1 <0>        -0.0744
     28 C19         3.2317    4.3023   -6.5522 C.ar      1 <0>         0.0452
     29 N3          1.5403    5.7671   -7.6211 N.pl3     1 <0>         0.0386
     30 O5          0.7880    5.9769   -8.5440 O.2       1 <0>        -0.1665
     31 O6          1.6119    6.5563   -6.7081 O.3       1 <0>        -0.1538
     32 H3          2.8795   -1.8168   -4.2504 H         1 <0>         0.0659
     33 H4          4.5347   -2.3856   -3.9266 H         1 <0>         0.0706
     34 H5          3.3127   -3.5159   -4.5568 H         1 <0>         0.0583
     35 H6          3.1458   -2.1051   -0.5189 H         1 <0>         0.0674
     36 H7          4.3274   -1.4486   -1.6810 H         1 <0>         0.1057
     37 H8          0.5305   -1.3378   -1.0518 H         1 <0>         0.0656
     38 H9          0.3778   -0.2899   -2.4857 H         1 <0>         0.0967
     39 H10        -1.2934   -2.0894   -3.2844 H         1 <0>         0.0716
     40 H11        -0.7085   -3.7494   -3.5495 H         1 <0>         0.0630
     41 H12        -0.9047   -3.1289   -1.8928 H         1 <0>         0.0631
     42 H13         4.2794   -0.0870    0.0005 H         1 <0>         0.1107
     43 H14         6.6253    0.5266    0.3859 H         1 <0>         0.1089
     44 H15         7.8621    1.8238   -1.2987 H         1 <0>         0.1077
     45 H16         6.7646    2.5183   -3.3827 H         1 <0>         0.1027
     46 H17         4.5401    1.3678   -7.5788 H         1 <0>         0.1558
     47 H18         3.0069    1.7943   -9.4575 H         1 <0>         0.1526
     48 H19         1.6199    3.8290   -9.4773 H         1 <0>         0.1557
     49 H20         3.2929    5.0055   -5.7347 H         1 <0>         0.1664
@<TRIPOS>BOND
     1    1    2 1
     2    1   32 1
     3    1   33 1
     4    1   34 1
     5    2    3 1
     6    2    9 1
     7    2    4 1
     8    4    5 1
     9    4   35 1
    10    4   36 1
    11    5    6 1
    12    5   11 am
    13    6    7 1
    14    6   37 1
    15    6   38 1
    16    7    8 1
    17    7    9 1
    18    7   10 1
    19   10   39 1
    20   10   40 1
    21   10   41 1
    22   11   12 2
    23   11   13 1
    24   13   18 ar
    25   13   14 ar
    26   14   15 ar
    27   14   42 1
    28   15   16 ar
    29   15   43 1
    30   16   17 ar
    31   16   44 1
    32   17   18 ar
    33   17   45 1
    34   18   19 1
    35   19   20 1
    36   20   21 2
    37   20   22 2
    38   20   23 1
    39   23   28 ar
    40   23   24 ar
    41   24   25 ar
    42   24   46 1
    43   25   26 ar
    44   25   47 1
    45   26   27 ar
    46   26   48 1
    47   27   28 ar
    48   27   29 1
    49   28   49 1
    50   29   30 2
    51   29   31 1
