@<TRIPOS>MOLECULE
ZINC39674133
   65    68     0     0     0
SMALL
USER_CHARGES

@<TRIPOS>ATOM
      1 C1         -0.6997    0.4832   -2.1409 C.3       1 <0>        -0.1252
      2 C2         -0.5886   -0.9706   -1.7598 C.ar      1 <0>        -0.0500
      3 C3         -1.0742   -1.9454   -2.6133 C.ar      1 <0>        -0.1259
      4 C4         -0.9755   -3.2780   -2.2705 C.ar      1 <0>        -0.0518
      5 C5         -0.3843   -3.6421   -1.0596 C.ar      1 <0>        -0.1430
      6 C6          0.1035   -2.6537   -0.2033 C.ar      1 <0>        -0.0927
      7 C7          0.0037   -1.3250   -0.5607 C.ar      1 <0>        -0.1292
      8 C8         -0.2757   -5.0683   -0.6856 C.2       1 <0>         0.5960
      9 O1         -0.3126   -5.9266   -1.5455 O.2       1 <0>        -0.5295
     10 N1         -0.1357   -5.4167    0.6088 N.am      1 <0>        -0.6148
     11 C9         -0.1870   -4.5337    1.7977 C.3       1 <0>         0.1051
     12 C10        -0.9523   -5.3537    2.8604 C.3       1 <0>        -0.1157
     13 H1         -0.5286   -5.1821    3.8498 H         1 <0>         0.1176
     14 C11        -0.7559   -6.8202    2.4407 C.3       1 <0>        -0.0723
     15 C12         0.0979   -6.7710    1.1652 C.3       1 <0>         0.1075
     16 C13        -0.0261   -7.5904    3.5369 C.3       1 <0>        -0.1338
     17 C14         0.1058   -9.0584    3.1215 C.3       1 <0>        -0.0103
     18 N2         -1.2287   -9.6284    2.9009 N.4       1 <0>        -0.5049
     19 C15        -1.8876   -8.9421    1.7830 C.3       1 <0>        -0.0094
     20 C16        -2.1039   -7.4692    2.1418 C.3       1 <0>        -0.1467
     21 C17        -2.4155   -4.9934    2.8476 C.2       1 <0>         0.5186
     22 O2         -2.9498   -4.6633    1.8100 O.2       1 <0>        -0.5082
     23 N3         -3.1305   -5.0379    3.9892 N.am      1 <0>        -0.7247
     24 C18        -4.5530   -4.6876    3.9768 C.3       1 <0>         0.2142
     25 H2         -4.9997   -5.0152    3.0381 H         1 <0>         0.1074
     26 C19        -4.7060   -3.1714    4.1126 C.3       1 <0>        -0.1707
     27 C20        -5.2479   -5.3678    5.1281 C.2       1 <0>        -0.1546
     28 C21        -6.3158   -6.1675    5.0876 C.2       1 <0>        -0.0138
     29 N4         -6.6488   -6.5869    6.3284 N.2       1 <0>        -0.1605
     30 N5         -5.9197   -6.1590    7.2265 N.2       1 <0>        -0.1415
     31 C22        -4.8919   -5.3079    6.6031 C.3       1 <0>        -0.0319
     32 H3         -3.8953   -5.7142    6.7759 H         1 <0>         0.1410
     33 C23        -4.9911   -3.8734    7.1258 C.3       1 <0>        -0.1206
     34 C24        -7.0506   -6.5507    3.8289 C.3       1 <0>        -0.0940
     35 H4          0.1874    0.7812   -2.6997 H         1 <0>         0.0792
     36 H5         -1.5851    0.6299   -2.7595 H         1 <0>         0.0729
     37 H6         -0.7819    1.0899   -1.2391 H         1 <0>         0.0717
     38 H7         -1.5317   -1.6624   -3.5497 H         1 <0>         0.1332
     39 H8         -1.3553   -4.0380   -2.9374 H         1 <0>         0.1339
     40 H9          0.5621   -2.9288    0.7351 H         1 <0>         0.1316
     41 H10         0.3847   -0.5595    0.0990 H         1 <0>         0.1304
     42 H11         0.8205   -4.3065    2.1461 H         1 <0>         0.0924
     43 H12        -0.7260   -3.6151    1.5658 H         1 <0>         0.1085
     44 H13        -0.2299   -7.5341    0.4592 H         1 <0>         0.0898
     45 H14         1.1516   -6.9053    1.4098 H         1 <0>         0.0858
     46 H15         0.9659   -7.1631    3.6831 H         1 <0>         0.1228
     47 H16        -0.5919   -7.5246    4.4662 H         1 <0>         0.0963
     48 H17         0.6856   -9.1245    2.2008 H         1 <0>         0.1339
     49 H18         0.6125   -9.6147    3.9101 H         1 <0>         0.1406
     50 H19        -1.1423  -10.6107    2.6869 H         1 <0>         0.4348
     51 H20        -1.2604   -9.0110    0.8942 H         1 <0>         0.1357
     52 H21        -2.8506   -9.4128    1.5849 H         1 <0>         0.1385
     53 H22        -2.7444   -7.3992    3.0211 H         1 <0>         0.0924
     54 H23        -2.5771   -6.9564    1.3045 H         1 <0>         0.1255
     55 H24        -2.7033   -5.3019    4.8191 H         1 <0>         0.3987
     56 H25        -4.2464   -2.6815    3.2542 H         1 <0>         0.0739
     57 H26        -5.7647   -2.9152    4.1533 H         1 <0>         0.0742
     58 H27        -4.2159   -2.8372    5.0271 H         1 <0>         0.0704
     59 H28        -5.9796   -3.4726    6.9017 H         1 <0>         0.0675
     60 H29        -4.8328   -3.8679    8.2043 H         1 <0>         0.0825
     61 H30        -4.2316   -3.2577    6.6440 H         1 <0>         0.0807
     62 H31        -6.6126   -7.4589    3.4148 H         1 <0>         0.0777
     63 H32        -8.1010   -6.7268    4.0607 H         1 <0>         0.0867
     64 H33        -6.9695   -5.7436    3.1009 H         1 <0>         0.0789
     65 H34        -1.7831   -9.5164    3.7364 H         1 <0>         0.4269
@<TRIPOS>BOND
     1    1    2 1
     2    1   35 1
     3    1   36 1
     4    1   37 1
     5    2    7 ar
     6    2    3 ar
     7    3    4 ar
     8    3   38 1
     9    4    5 ar
    10    4   39 1
    11    5    6 ar
    12    5    8 1
    13    6    7 ar
    14    6   40 1
    15    7   41 1
    16    8    9 2
    17    8   10 am
    18   10   15 1
    19   10   11 1
    20   11   12 1
    21   11   42 1
    22   11   43 1
    23   12   13 1
    24   12   14 1
    25   12   21 1
    26   14   20 1
    27   14   15 1
    28   14   16 1
    29   15   44 1
    30   15   45 1
    31   16   17 1
    32   16   46 1
    33   16   47 1
    34   17   18 1
    35   17   48 1
    36   17   49 1
    37   18   19 1
    38   18   50 1
    39   18   65 1
    40   19   20 1
    41   19   51 1
    42   19   52 1
    43   20   53 1
    44   20   54 1
    45   21   22 2
    46   21   23 am
    47   23   24 1
    48   23   55 1
    49   24   25 1
    50   24   26 1
    51   24   27 1
    52   26   56 1
    53   26   57 1
    54   26   58 1
    55   27   31 1
    56   27   28 2
    57   28   29 1
    58   28   34 1
    59   29   30 2
    60   30   31 1
    61   31   32 1
    62   31   33 1
    63   33   59 1
    64   33   60 1
    65   33   61 1
    66   34   62 1
    67   34   63 1
    68   34   64 1
