@<TRIPOS>MOLECULE
ZINC05532623
   46    48     0     0     0
SMALL
USER_CHARGES
[(1-cyanocyclohexyl)-methyl-carbamoyl]methyl 1H-indole-2-carboxylate
@<TRIPOS>ATOM
      1 C1          1.8137    2.8294   -1.0989 C.3       1 <0>         0.0594
      2 N1          1.3565    1.9749   -0.0003 N.am      1 <0>        -0.6085
      3 C2          2.2003    1.6552    1.0008 C.2       1 <0>         0.5177
      4 O1          1.8219    0.9477    1.9103 O.2       1 <0>        -0.4997
      5 C3          3.6141    2.1768    0.9901 C.3       1 <0>         0.0543
      6 O2          4.3164    1.6958    2.1665 O.3       1 <0>        -0.3353
      7 C4          5.6026    2.0748    2.3092 C.2       1 <0>         0.5366
      8 O3          6.1226    2.7879    1.4731 O.2       1 <0>        -0.4866
      9 C5          6.3754    1.6261    3.4750 C.2       1 <0>         0.0248
     10 C6          7.6754    1.9353    3.7256 C.2       1 <0>        -0.0857
     11 C7          8.0398    1.3113    4.9428 C.ar      1 <0>        -0.1273
     12 C8          9.2258    1.2753    5.6882 C.ar      1 <0>        -0.0554
     13 C9          9.2748    0.5642    6.8515 C.ar      1 <0>        -0.1482
     14 C10         8.1583   -0.1266    7.3062 C.ar      1 <0>        -0.0786
     15 C11         6.9817   -0.1068    6.5919 C.ar      1 <0>        -0.1349
     16 C12         6.9065    0.6118    5.4017 C.ar      1 <0>         0.1225
     17 N2          5.8990    0.8174    4.4893 N.pl3     1 <0>        -0.5671
     18 H1          5.0015    0.4542    4.5476 H         1 <0>         0.4279
     19 C13        -0.0179    1.4678    0.0101 C.3       1 <0>         0.2851
     20 C14        -0.7340    1.9612    1.2689 C.3       1 <0>        -0.1276
     21 C15        -2.1694    1.4316    1.2798 C.3       1 <0>        -0.1221
     22 C16        -2.9094    1.9384    0.0402 C.3       1 <0>        -0.1235
     23 C17        -2.1933    1.4450   -1.2186 C.3       1 <0>        -0.1224
     24 C18        -0.7579    1.9746   -1.2294 C.3       1 <0>        -0.1190
     25 C19         0.0021   -0.0041    0.0020 C.1       1 <0>         0.2030
     26 N3          0.0175   -1.1399   -0.0042 N.1       1 <0>        -0.4063
     27 H2          1.6240    3.8736   -0.8501 H         1 <0>         0.0735
     28 H3          2.8824    2.6813   -1.2539 H         1 <0>         0.0790
     29 H4          1.2749    2.5693   -2.0100 H         1 <0>         0.0895
     30 H5          4.1243    1.8253    0.0933 H         1 <0>         0.1080
     31 H6          3.5994    3.2667    0.9961 H         1 <0>         0.1109
     32 H7          8.3148    2.5484    3.1078 H         1 <0>         0.1613
     33 H8         10.0989    1.8088    5.3426 H         1 <0>         0.1285
     34 H9         10.1900    0.5383    7.4244 H         1 <0>         0.1275
     35 H10         8.2142   -0.6847    8.2292 H         1 <0>         0.1305
     36 H11         6.1194   -0.6473    6.9536 H         1 <0>         0.1258
     37 H12        -0.2068    1.6001    2.1520 H         1 <0>         0.0931
     38 H13        -0.7488    3.0511    1.2749 H         1 <0>         0.0866
     39 H14        -2.6796    1.7831    2.1766 H         1 <0>         0.0768
     40 H15        -2.1546    0.3417    1.2738 H         1 <0>         0.0625
     41 H16        -2.9242    3.0283    0.0462 H         1 <0>         0.0705
     42 H17        -3.9320    1.5612    0.0480 H         1 <0>         0.0700
     43 H18        -2.7204    1.8061   -2.1016 H         1 <0>         0.0800
     44 H19        -2.1785    0.3551   -1.2245 H         1 <0>         0.0642
     45 H20        -0.7727    3.0645   -1.2234 H         1 <0>         0.0962
     46 H21        -0.2477    1.6231   -2.1262 H         1 <0>         0.0822
@<TRIPOS>BOND
     1    1    2 1
     2    1   27 1
     3    1   28 1
     4    1   29 1
     5    2    3 am
     6    2   19 1
     7    3    4 2
     8    3    5 1
     9    5    6 1
    10    5   30 1
    11    5   31 1
    12    6    7 1
    13    7    8 2
    14    7    9 1
    15    9   17 1
    16    9   10 2
    17   10   11 1
    18   10   32 1
    19   11   16 ar
    20   11   12 ar
    21   12   13 ar
    22   12   33 1
    23   13   14 ar
    24   13   34 1
    25   14   15 ar
    26   14   35 1
    27   15   16 ar
    28   15   36 1
    29   16   17 1
    30   17   18 1
    31   19   24 1
    32   19   20 1
    33   19   25 1
    34   20   21 1
    35   20   37 1
    36   20   38 1
    37   21   22 1
    38   21   39 1
    39   21   40 1
    40   22   23 1
    41   22   41 1
    42   22   42 1
    43   23   24 1
    44   23   43 1
    45   23   44 1
    46   24   45 1
    47   24   46 1
    48   25   26 3
