@<TRIPOS>MOLECULE
ZINC41515903
   29    30     0     0     0
SMALL
USER_CHARGES

@<TRIPOS>ATOM
      1 C1         -0.0184    1.5028    0.0103 C.3       1 <0>        -0.0808
      2 C2          0.0021   -0.0041    0.0020 C.2       1 <0>         0.0587
      3 C3          0.0059   -0.7076   -1.1591 C.2       1 <0>        -0.2226
      4 S1          0.0324   -2.3789   -0.5312 S.3       1 <0>         0.1868
      5 C4          0.0357   -2.0088    1.1107 C.2       1 <0>         0.0148
      6 N1          0.0226   -0.6992    1.1217 N.2       1 <0>        -0.4883
      7 C5          0.0549   -2.9548    2.2837 C.3       1 <0>         0.0714
      8 H1          0.0512   -2.3830    3.2117 H         1 <0>         0.1640
      9 C6          1.2685   -3.7857    2.2241 C.1       1 <0>         0.1984
     10 N2          2.2050   -4.4270    2.1781 N.1       1 <0>        -0.3589
     11 C7         -1.1633   -3.8405    2.2346 C.2       1 <0>         0.4543
     12 O1         -1.6603   -4.1310    1.1652 O.2       1 <0>        -0.3957
     13 C8         -1.7271   -4.3329    3.4323 C.2       1 <0>        -0.3002
     14 C9         -2.8335   -5.1592    3.6066 C.2       1 <0>         0.0004
     15 C10        -3.1435   -5.4710    4.9058 C.2       1 <0>        -0.1225
     16 C11        -2.3755   -4.9696    5.9072 C.2       1 <0>        -0.1064
     17 S2         -1.2027   -4.0645    5.1149 S.3       1 <0>         0.3474
     18 C12        -2.5348   -5.1822    7.3906 C.3       1 <0>        -0.1025
     19 N3         -4.3001   -6.3422    5.2123 N.pl3     1 <0>         0.0498
     20 O2         -4.9785   -6.7843    4.3146 O.2       1 <0>        -0.1529
     21 O3         -4.5665   -6.6116    6.3604 O.3       1 <0>        -0.1531
     22 H2          1.0042    1.8801    0.0026 H         1 <0>         0.0773
     23 H3         -0.5455    1.8639   -0.8728 H         1 <0>         0.0779
     24 H4         -0.5286    1.8543    0.9071 H         1 <0>         0.0771
     25 H5         -0.0043   -0.3543   -2.1797 H         1 <0>         0.2027
     26 H6         -3.4108   -5.5305    2.7728 H         1 <0>         0.1828
     27 H7         -1.9644   -6.0598    7.6952 H         1 <0>         0.1072
     28 H8         -2.1667   -4.3063    7.9248 H         1 <0>         0.0946
     29 H9         -3.5884   -5.3344    7.6248 H         1 <0>         0.1185
@<TRIPOS>BOND
     1    1    2 1
     2    1   22 1
     3    1   23 1
     4    1   24 1
     5    2    6 1
     6    2    3 2
     7    3    4 1
     8    3   25 1
     9    4    5 1
    10    5    6 2
    11    5    7 1
    12    7    8 1
    13    7    9 1
    14    7   11 1
    15    9   10 3
    16   11   12 2
    17   11   13 1
    18   13   17 1
    19   13   14 2
    20   14   15 1
    21   14   26 1
    22   15   16 2
    23   15   19 1
    24   16   17 1
    25   16   18 1
    26   18   27 1
    27   18   28 1
    28   18   29 1
    29   19   20 2
    30   19   21 1
