@<TRIPOS>MOLECULE
ZINC08872817
   70    73     0     0     0
SMALL
USER_CHARGES
N-[(4-diethylaminophenyl)methyleneamino]-6-(4-methylpiperazin-1-yl)-N'-(4-nitrophenyl)-1,3,5-triazine-2,4-diamine
@<TRIPOS>ATOM
      1 C1         12.6955    7.9622    3.5372 C.3       1 <0>        -0.1742
      2 C2         12.8803    7.7977    2.0273 C.3       1 <0>         0.1152
      3 N1         12.9290    6.3720    1.6937 N.pl3     1 <0>        -0.6192
      4 C3         14.2127    5.6663    1.6802 C.3       1 <0>         0.1124
      5 C4         14.8274    5.7525    0.2818 C.3       1 <0>        -0.1735
      6 C5         11.7527    5.6863    1.3888 C.ar      1 <0>         0.2463
      7 C6         11.8008    4.3329    1.0724 C.ar      1 <0>        -0.2035
      8 C7         10.6416    3.6528    0.7699 C.ar      1 <0>        -0.0293
      9 C8          9.4161    4.3245    0.7819 C.ar      1 <0>        -0.1325
     10 C9          9.3722    5.6857    1.0956 C.ar      1 <0>        -0.0222
     11 C10        10.5350    6.3581    1.4017 C.ar      1 <0>        -0.2109
     12 C11         8.1735    3.6004    0.4583 C.2       1 <0>         0.1476
     13 N2          7.0507    4.2455    0.3695 N.2       1 <0>        -0.2454
     14 N3          5.8545    3.5451    0.1666 N.pl3     1 <0>        -0.5310
     15 C12         4.6496    4.2193    0.1761 C.ar      1 <0>         0.6780
     16 N4          3.5080    3.5422    0.0922 N.ar      1 <0>        -0.6435
     17 C13         2.3484    4.1918    0.0963 C.ar      1 <0>         0.6519
     18 N5          2.3293    5.5176    0.1953 N.ar      1 <0>        -0.6300
     19 C14         3.4701    6.1941    0.2846 C.ar      1 <0>         0.5848
     20 N6          4.6303    5.5452    0.2751 N.ar      1 <0>        -0.6202
     21 N7          3.4500    7.5704    0.3869 N.pl3     1 <0>        -0.4575
     22 C15         2.7183    8.1713   -0.7370 C.3       1 <0>         0.0370
     23 C16         2.6505    9.6883   -0.5452 C.3       1 <0>         0.0039
     24 C17         4.7456    9.6289    0.6654 C.3       1 <0>         0.0001
     25 C18         4.8134    8.1119    0.4737 C.3       1 <0>         0.0409
     26 C19         3.9925   11.6947   -0.3496 C.3       1 <0>        -0.0407
     27 N8          1.1626    3.4889    0.0035 N.pl3     1 <0>        -0.6223
     28 C20         1.1837    2.1084   -0.2185 C.ar      1 <0>         0.2103
     29 C21         0.2525    1.2887    0.4062 C.ar      1 <0>        -0.1388
     30 C22         0.2758   -0.0742    0.1845 C.ar      1 <0>        -0.0289
     31 C23         1.2245   -0.6230   -0.6587 C.ar      1 <0>        -0.0559
     32 C24         2.1530    0.1903   -1.2822 C.ar      1 <0>        -0.0334
     33 C25         2.1358    1.5539   -1.0641 C.ar      1 <0>        -0.1117
     34 N9          1.2465   -2.0842   -0.8941 N.pl3     1 <0>         0.0269
     35 O1          0.4295   -2.8018   -0.3453 O.2       1 <0>        -0.1545
     36 O2          2.0815   -2.5690   -1.6365 O.3       1 <0>        -0.1570
     37 H1         12.6593    9.0229    3.7854 H         1 <0>         0.0661
     38 H2         11.7644    7.4854    3.8434 H         1 <0>         0.0586
     39 H3         13.5313    7.4954    4.0584 H         1 <0>         0.0589
     40 H4         13.8114    8.2745    1.7211 H         1 <0>         0.0773
     41 H5         12.0445    8.2645    1.5060 H         1 <0>         0.0756
     42 H6         14.8874    6.1256    2.4026 H         1 <0>         0.0778
     43 H7         14.0552    4.6205    1.9441 H         1 <0>         0.0793
     44 H8         14.9849    6.7983    0.0179 H         1 <0>         0.0569
     45 H9         15.7825    5.2274    0.2718 H         1 <0>         0.0684
     46 H10        14.1527    5.2932   -0.4406 H         1 <0>         0.0591
     47 H11        12.7483    3.8146    1.0634 H         1 <0>         0.1300
     48 H12        10.6799    2.6020    0.5236 H         1 <0>         0.1289
     49 H13         8.4275    6.2090    1.1014 H         1 <0>         0.1284
     50 H14        10.5014    7.4090    1.6482 H         1 <0>         0.1247
     51 H15         8.1973    2.5330    0.2951 H         1 <0>         0.1204
     52 H16         5.8727    2.5865    0.0195 H         1 <0>         0.4065
     53 H17         3.2350    7.9454   -1.6697 H         1 <0>         0.0725
     54 H18         1.7080    7.7638   -0.7726 H         1 <0>         0.1414
     55 H19         2.1100    9.9149    0.3738 H         1 <0>         0.1443
     56 H20         2.1332   10.1394   -1.3920 H         1 <0>         0.1427
     57 H21         4.2289    9.8548    1.5982 H         1 <0>         0.1412
     58 H22         5.7559   10.0364    0.7014 H         1 <0>         0.1428
     59 H23         5.3305    7.6611    1.3207 H         1 <0>         0.1383
     60 H24         5.3540    7.8850   -0.4452 H         1 <0>         0.0838
     61 H25         5.0142   12.0743   -0.3548 H         1 <0>         0.1238
     62 H26         3.4449   12.1138   -1.1937 H         1 <0>         0.1235
     63 H27         3.5026   11.9828    0.5805 H         1 <0>         0.1251
     64 H28         0.3155    3.9530    0.0923 H         1 <0>         0.4357
     65 H29        -0.4917    1.7173    1.0611 H         1 <0>         0.1533
     66 H30        -0.4480   -0.7121    0.6699 H         1 <0>         0.1620
     67 H31         2.8927   -0.2415   -1.9402 H         1 <0>         0.1580
     68 H32         2.8613    2.1885   -1.5513 H         1 <0>         0.1494
     69 N10         4.0273   10.2225   -0.4818 N.4       1 <0>        -0.4024
     70 H33         4.5209    9.9769   -1.3480 H         1 <0>         0.4284
@<TRIPOS>BOND
     1    1    2 1
     2    1   37 1
     3    1   38 1
     4    1   39 1
     5    2    3 1
     6    2   40 1
     7    2   41 1
     8    3    4 1
     9    3    6 1
    10    4    5 1
    11    4   42 1
    12    4   43 1
    13    5   44 1
    14    5   45 1
    15    5   46 1
    16    6   11 ar
    17    6    7 ar
    18    7    8 ar
    19    7   47 1
    20    8    9 ar
    21    8   48 1
    22    9   10 ar
    23    9   12 1
    24   10   11 ar
    25   10   49 1
    26   11   50 1
    27   12   13 2
    28   12   51 1
    29   13   14 1
    30   14   15 1
    31   14   52 1
    32   15   20 ar
    33   15   16 ar
    34   16   17 ar
    35   17   18 ar
    36   17   27 1
    37   18   19 ar
    38   19   20 ar
    39   19   21 1
    40   21   25 1
    41   21   22 1
    42   22   23 1
    43   22   53 1
    44   22   54 1
    45   23   55 1
    46   23   56 1
    47   23   69 1
    48   24   25 1
    49   24   57 1
    50   24   58 1
    51   24   69 1
    52   25   59 1
    53   25   60 1
    54   26   61 1
    55   26   62 1
    56   26   63 1
    57   26   69 1
    58   27   28 1
    59   27   64 1
    60   28   33 ar
    61   28   29 ar
    62   29   30 ar
    63   29   65 1
    64   30   31 ar
    65   30   66 1
    66   31   32 ar
    67   31   34 1
    68   32   33 ar
    69   32   67 1
    70   33   68 1
    71   34   35 2
    72   34   36 1
    73   69   70 1
