@<TRIPOS>MOLECULE
ZINC63698960
   49    53     0     0     0
SMALL
USER_CHARGES

@<TRIPOS>ATOM
      1 C1         -0.0777    1.4392   -0.6661 C.3       1 <0>        -0.1259
      2 C2         -0.0855   -0.0673   -0.6314 C.2       1 <0>         0.1719
      3 C3         -1.1022   -0.7886   -0.2548 C.2       1 <0>        -0.2433
      4 C4         -2.5263   -0.4062    0.0658 C.3       1 <0>         0.0420
      5 H1         -2.7834   -0.7305    1.0742 H         1 <0>         0.1136
      6 C5         -3.4064   -1.1322   -0.9628 C.3       1 <0>        -0.1336
      7 C6         -2.8899   -2.5001   -1.2707 C.2       1 <0>         0.5317
      8 O1         -3.6832   -3.2739   -1.7634 O.2       1 <0>        -0.4989
      9 N1         -1.6584   -2.9697   -1.0665 N.am      1 <0>        -0.7028
     10 C7         -0.6617   -2.2434   -0.2905 C.3       1 <0>         0.2843
     11 H2         -0.5960   -2.6485    0.7193 H         1 <0>         0.0858
     12 N2          0.6577   -2.1922   -0.9295 N.3       1 <0>        -0.2146
     13 N3          0.9867   -0.8640   -1.0018 N.pl3     1 <0>        -0.5512
     14 C8          1.6502   -2.9429   -0.1489 C.3       1 <0>         0.3663
     15 N4          1.2680   -4.3587   -0.0761 N.pl3     1 <0>        -0.4725
     16 C9          1.0982   -4.6533    1.1804 C.ar      1 <0>         0.3179
     17 C10         0.7181   -5.8920    1.8735 C.ar      1 <0>        -0.1375
     18 C11         0.6187   -5.8981    3.2179 C.ar      1 <0>         0.0388
     19 C12         0.8651   -4.7568    4.0016 C.ar      1 <0>         0.0327
     20 C13         1.2191   -3.5709    3.4672 C.ar      1 <0>        -0.1373
     21 C14         1.3595   -3.4453    2.0099 C.ar      1 <0>         0.3095
     22 N5          1.6807   -2.4506    1.2341 N.pl3     1 <0>        -0.5108
     23 C15        -2.7027    1.0852   -0.0588 C.ar      1 <0>        -0.0978
     24 C16        -2.8914    1.6575   -1.3032 C.ar      1 <0>        -0.0695
     25 C17        -3.0532    3.0253   -1.4174 C.ar      1 <0>        -0.1053
     26 C18        -3.0267    3.8214   -0.2873 C.ar      1 <0>        -0.0403
     27 C19        -2.8390    3.2492    0.9567 C.ar      1 <0>        -0.0397
     28 C20        -2.6815    1.8804    1.0715 C.ar      1 <0>        -0.0487
     29 N6         -2.8102    4.1015    2.1666 N.pl3     1 <0>         0.0247
     30 O2         -2.9509    5.2981    2.0665 O.2       1 <0>        -0.1351
     31 O3         -2.6460    3.6010    3.2548 O.3       1 <0>        -0.1529
     32 H3          0.9197    1.7915   -0.9291 H         1 <0>         0.0881
     33 H4         -0.7942    1.7892   -1.4092 H         1 <0>         0.1112
     34 H5         -0.3530    1.8267    0.3148 H         1 <0>         0.1016
     35 H6         -4.4188   -1.2158   -0.5675 H         1 <0>         0.1310
     36 H7         -3.4332   -0.5477   -1.8824 H         1 <0>         0.1233
     37 H8         -1.4170   -3.8276   -1.4493 H         1 <0>         0.4043
     38 H9          1.8546   -0.5266   -1.2733 H         1 <0>         0.4588
     39 H10         2.6360   -2.8434   -0.6032 H         1 <0>         0.2485
     40 H11         0.5194   -6.7914    1.3096 H         1 <0>         0.2073
     41 H12         0.3383   -6.8162    3.7128 H         1 <0>         0.2053
     42 H13         0.7663   -4.8332    5.0743 H         1 <0>         0.2046
     43 H14         1.3984   -2.7187    4.1060 H         1 <0>         0.2052
     44 H15        -2.9120    1.0356   -2.1860 H         1 <0>         0.1465
     45 H16        -3.1998    3.4724   -2.3895 H         1 <0>         0.1586
     46 H17        -3.1525    4.8903   -0.3767 H         1 <0>         0.1637
     47 H18        -2.5385    1.4329    2.0439 H         1 <0>         0.1547
     48 H19         1.1613   -4.9636   -0.8269 H         1 <0>         0.4975
     49 H20         1.9002   -1.5494    1.5178 H         1 <0>         0.4887
@<TRIPOS>BOND
     1    1    2 1
     2    1   32 1
     3    1   33 1
     4    1   34 1
     5    2   13 1
     6    2    3 2
     7    3   10 1
     8    3    4 1
     9    4    5 1
    10    4    6 1
    11    4   23 1
    12    6    7 1
    13    6   35 1
    14    6   36 1
    15    7    8 2
    16    7    9 am
    17    9   10 1
    18    9   37 1
    19   10   11 1
    20   10   12 1
    21   12   13 1
    22   12   14 1
    23   13   38 1
    24   14   22 1
    25   14   15 1
    26   14   39 1
    27   15   16 2
    28   15   48 1
    29   16   21 ar
    30   16   17 ar
    31   17   18 ar
    32   17   40 1
    33   18   19 ar
    34   18   41 1
    35   19   20 ar
    36   19   42 1
    37   20   21 ar
    38   20   43 1
    39   21   22 2
    40   22   49 1
    41   23   28 ar
    42   23   24 ar
    43   24   25 ar
    44   24   44 1
    45   25   26 ar
    46   25   45 1
    47   26   27 ar
    48   26   46 1
    49   27   28 ar
    50   27   29 1
    51   28   47 1
    52   29   30 2
    53   29   31 1
