@<TRIPOS>MOLECULE
ZINC39672971
   75    79     0     0     0
SMALL
USER_CHARGES

@<TRIPOS>ATOM
      1 C1          0.7980   -1.4181    1.8295 C.3       1 <0>         0.0516
      2 N1         -0.3987   -2.2209    2.0935 N.pl3     1 <0>        -0.4454
      3 C2         -0.9293   -3.1550    1.2844 C.2       1 <0>         0.2174
      4 N2         -1.9935   -3.6615    1.8531 N.2       1 <0>        -0.4907
      5 C3         -2.1892   -3.0812    3.0373 C.2       1 <0>         0.0688
      6 C4         -1.1919   -2.1655    3.2233 C.2       1 <0>        -0.0947
      7 C5         -1.0030   -1.2946    4.3894 C.2       1 <0>         0.6345
      8 O1         -1.0321   -1.7650    5.5112 O.2       1 <0>        -0.5130
      9 N3         -0.7973    0.0263    4.2177 N.am      1 <0>        -0.6168
     10 C6         -0.8130    0.7904    2.9481 C.3       1 <0>         0.1098
     11 C7         -1.5122    2.1219    3.3025 C.3       1 <0>        -0.1147
     12 H1         -1.0477    2.9491    2.7657 H         1 <0>         0.1159
     13 C8         -1.3047    2.2830    4.8177 C.3       1 <0>        -0.0718
     14 C9         -0.5108    1.0440    5.2571 C.3       1 <0>         0.1073
     15 C10        -0.5102    3.5520    5.1105 C.3       1 <0>        -0.1341
     16 C11        -0.3669    3.7209    6.6257 C.3       1 <0>        -0.0100
     17 N4         -1.6980    3.8007    7.2392 N.4       1 <0>        -0.5046
     18 C12        -2.4209    2.5400    7.0323 C.3       1 <0>        -0.0095
     19 C13        -2.6512    2.3213    5.5342 C.3       1 <0>        -0.1476
     20 C14        -2.9816    2.0458    2.9769 C.2       1 <0>         0.5103
     21 O2         -3.5477    0.9732    2.9755 O.2       1 <0>        -0.5084
     22 N5         -3.6668    3.1697    2.6873 N.am      1 <0>        -0.7282
     23 C15        -5.1157    3.1110    2.4784 C.3       1 <0>         0.0835
     24 C16        -5.6228    4.4841    2.0332 C.3       1 <0>         0.1071
     25 C17        -5.1036    5.5557    2.9940 C.3       1 <0>        -0.1096
     26 C18        -5.6071    5.2599    4.4082 C.3       1 <0>        -0.1169
     27 C19        -7.1371    5.2657    4.4164 C.3       1 <0>        -0.1228
     28 C20        -7.6563    4.1942    3.4556 C.3       1 <0>        -0.1241
     29 C21        -7.1528    4.4900    2.0414 C.3       1 <0>        -0.1065
     30 N6         -5.1393    4.7681    0.6755 N.3       1 <0>        -0.5195
     31 C22        -5.5498    3.7123   -0.2615 C.3       1 <0>         0.0105
     32 C23        -5.0778    4.0770   -1.6715 C.3       1 <0>         0.0627
     33 O3         -3.6606    4.2693   -1.6596 O.3       1 <0>        -0.3819
     34 C24        -3.2259    5.2910   -0.7582 C.3       1 <0>         0.0618
     35 C25        -3.6792    4.9386    0.6611 C.3       1 <0>        -0.0056
     36 H2          1.6863   -1.9935    2.0902 H         1 <0>         0.0856
     37 H3          0.8330   -1.1549    0.7723 H         1 <0>         0.0972
     38 H4          0.7651   -0.5087    2.4294 H         1 <0>         0.0899
     39 H5         -0.5395   -3.4412    0.3187 H         1 <0>         0.2153
     40 H6         -2.9904   -3.2987    3.7280 H         1 <0>         0.1782
     41 H7          0.2044    0.9755    2.6034 H         1 <0>         0.0916
     42 H8         -1.3808    0.2534    2.1883 H         1 <0>         0.0994
     43 H9         -0.8544    0.6991    6.2323 H         1 <0>         0.0919
     44 H10         0.5555    1.2686    5.2860 H         1 <0>         0.0870
     45 H11         0.4784    3.4750    4.6578 H         1 <0>         0.1225
     46 H12        -1.0345    4.4133    4.6964 H         1 <0>         0.0971
     47 H13         0.1718    2.8671    7.0368 H         1 <0>         0.1338
     48 H14         0.1863    4.6356    6.8384 H         1 <0>         0.1412
     49 H15        -1.6010    3.9728    8.2287 H         1 <0>         0.4351
     50 H16        -1.8333    1.7143    7.4336 H         1 <0>         0.1356
     51 H17        -3.3820    2.5842    7.5447 H         1 <0>         0.1394
     52 H18        -3.2525    3.1383    5.1354 H         1 <0>         0.0961
     53 H19        -3.1723    1.3764    5.3803 H         1 <0>         0.1233
     54 H20        -3.2006    4.0174    2.6171 H         1 <0>         0.4003
     55 H21        -5.3422    2.3730    1.7089 H         1 <0>         0.0796
     56 H22        -5.6058    2.8270    3.4097 H         1 <0>         0.0805
     57 H23        -4.0136    5.5515    2.9882 H         1 <0>         0.0558
     58 H24        -5.4649    6.5339    2.6769 H         1 <0>         0.0830
     59 H25        -5.2458    4.2816    4.7253 H         1 <0>         0.0566
     60 H26        -5.2372    6.0232    5.0927 H         1 <0>         0.0635
     61 H27        -7.4959    5.0550    5.4239 H         1 <0>         0.0644
     62 H28        -7.4984    6.2440    4.0992 H         1 <0>         0.0690
     63 H29        -7.2951    3.2160    3.7727 H         1 <0>         0.0631
     64 H30        -8.7463    4.1984    3.4614 H         1 <0>         0.0727
     65 H31        -7.5141    5.4683    1.7243 H         1 <0>         0.0823
     66 H32        -7.5227    3.7266    1.3569 H         1 <0>         0.0696
     67 H33        -5.1018    2.7650    0.0386 H         1 <0>         0.0488
     68 H34        -6.6359    3.6207   -0.2536 H         1 <0>         0.0930
     69 H35        -5.3298    3.2702   -2.3598 H         1 <0>         0.1013
     70 H36        -5.5671    4.9965   -1.9927 H         1 <0>         0.0633
     71 H37        -2.1386    5.3623   -0.7858 H         1 <0>         0.0966
     72 H38        -3.6614    6.2458   -1.0528 H         1 <0>         0.0618
     73 H39        -3.3998    5.7422    1.3425 H         1 <0>         0.0858
     74 H40        -3.2013    4.0109    0.9760 H         1 <0>         0.0572
     75 H41        -2.2162    4.5571    6.8181 H         1 <0>         0.4270
@<TRIPOS>BOND
     1    1    2 1
     2    1   36 1
     3    1   37 1
     4    1   38 1
     5    2    6 1
     6    2    3 1
     7    3    4 2
     8    3   39 1
     9    4    5 1
    10    5    6 2
    11    5   40 1
    12    6    7 1
    13    7    8 2
    14    7    9 am
    15    9   14 1
    16    9   10 1
    17   10   11 1
    18   10   41 1
    19   10   42 1
    20   11   12 1
    21   11   13 1
    22   11   20 1
    23   13   19 1
    24   13   14 1
    25   13   15 1
    26   14   43 1
    27   14   44 1
    28   15   16 1
    29   15   45 1
    30   15   46 1
    31   16   17 1
    32   16   47 1
    33   16   48 1
    34   17   18 1
    35   17   49 1
    36   17   75 1
    37   18   19 1
    38   18   50 1
    39   18   51 1
    40   19   52 1
    41   19   53 1
    42   20   21 2
    43   20   22 am
    44   22   23 1
    45   22   54 1
    46   23   24 1
    47   23   55 1
    48   23   56 1
    49   24   29 1
    50   24   25 1
    51   24   30 1
    52   25   26 1
    53   25   57 1
    54   25   58 1
    55   26   27 1
    56   26   59 1
    57   26   60 1
    58   27   28 1
    59   27   61 1
    60   27   62 1
    61   28   29 1
    62   28   63 1
    63   28   64 1
    64   29   65 1
    65   29   66 1
    66   30   35 1
    67   30   31 1
    68   31   32 1
    69   31   67 1
    70   31   68 1
    71   32   33 1
    72   32   69 1
    73   32   70 1
    74   33   34 1
    75   34   35 1
    76   34   71 1
    77   34   72 1
    78   35   73 1
    79   35   74 1
