@<TRIPOS>MOLECULE
ZINC39592812
   51    55     0     0     0
SMALL
USER_CHARGES

@<TRIPOS>ATOM
      1 C1         -0.0173    1.4248    0.0099 C.3       1 <0>         0.0196
      2 O1          0.0021   -0.0041    0.0020 O.3       1 <0>        -0.2961
      3 C2          0.6062   -0.6075   -1.0565 C.ar      1 <0>         0.1555
      4 C3          1.1714    0.1599   -2.0597 C.ar      1 <0>        -0.2024
      5 C4          1.7911   -0.4599   -3.1455 C.ar      1 <0>         0.0655
      6 C5          1.8394   -1.8527   -3.2169 C.ar      1 <0>        -0.1850
      7 C6          1.2728   -2.6159   -2.2113 C.ar      1 <0>         0.1531
      8 C7          0.6605   -1.9958   -1.1270 C.ar      1 <0>         0.0526
      9 O2          0.1095   -2.7482   -0.1364 O.3       1 <0>        -0.3108
     10 C8         -1.2621   -3.1186   -0.2898 C.3       1 <0>         0.0347
     11 O3          1.3195   -3.9734   -2.2802 O.3       1 <0>        -0.2969
     12 C9          1.9688   -4.5432   -3.4186 C.3       1 <0>         0.0208
     13 C10         2.3954    0.3580   -4.2192 C.2       1 <0>         0.1317
     14 N1          3.0052   -0.0374   -5.3005 N.2       1 <0>        -0.1796
     15 N2          3.5207    0.8732   -6.2167 N.pl3     1 <0>        -0.4829
     16 C11         4.2502    0.8617   -7.5102 C.3       1 <0>         0.4508
     17 H1          5.2155    0.3681   -7.3982 H         1 <0>         0.1014
     18 N3          4.4356    2.2822   -7.8412 N.pl3     1 <0>        -0.6409
     19 N4          3.8459    3.0039   -6.7965 N.2       1 <0>        -0.2208
     20 C12         3.3471    2.2165   -5.9110 C.2       1 <0>         0.2042
     21 S1          2.4663    2.1355   -4.3640 S.3       1 <0>         0.1012
     22 C13         3.4168    0.1643   -8.5872 C.3       1 <0>        -0.0703
     23 H2          2.4625    0.6731   -8.7231 H         1 <0>         0.1567
     24 C14         4.1808    0.0987   -9.8977 C.2       1 <0>        -0.1440
     25 C15         4.3089   -1.2219  -10.1307 C.2       1 <0>         0.0155
     26 N5          3.7238   -1.9381   -9.1351 N.2       1 <0>        -0.1550
     27 N6          3.2066   -1.2523   -8.2456 N.2       1 <0>        -0.1217
     28 C16         4.9919   -1.8112  -11.3086 C.ar      1 <0>        -0.0305
     29 C17         5.5648   -0.9825  -12.2716 C.ar      1 <0>        -0.0884
     30 C18         6.1989   -1.5355  -13.3653 C.ar      1 <0>        -0.1096
     31 C19         6.2662   -2.9110  -13.5071 C.ar      1 <0>        -0.0240
     32 C20         5.6986   -3.7385  -12.5532 C.ar      1 <0>        -0.1098
     33 C21         5.0677   -3.1953  -11.4528 C.ar      1 <0>        -0.0726
     34 Cl1         7.0644   -3.6005  -14.8860 Cl        1 <0>        -0.0614
     35 H3          1.0053    1.8021    0.0021 H         1 <0>         0.0614
     36 H4         -0.5445    1.7859   -0.8732 H         1 <0>         0.0601
     37 H5         -0.5275    1.7763    0.9067 H         1 <0>         0.1073
     38 H6          1.1325    1.2377   -2.0025 H         1 <0>         0.1424
     39 H7          2.3182   -2.3346   -4.0565 H         1 <0>         0.1512
     40 H8         -1.3808   -3.7032   -1.2021 H         1 <0>         0.0471
     41 H9         -1.5755   -3.7150    0.5671 H         1 <0>         0.0955
     42 H10        -1.8764   -2.2203   -0.3514 H         1 <0>         0.0469
     43 H11         1.9356   -5.6304   -3.3494 H         1 <0>         0.1064
     44 H12         1.4591   -4.2211   -4.3266 H         1 <0>         0.0618
     45 H13         3.0071   -4.2125   -3.4480 H         1 <0>         0.0613
     46 H14         4.8774    2.6457   -8.6245 H         1 <0>         0.4598
     47 H15         4.5380    0.9193  -10.5021 H         1 <0>         0.1781
     48 H16         5.5122    0.0906  -12.1622 H         1 <0>         0.1340
     49 H17         6.6432   -0.8941  -14.1122 H         1 <0>         0.1403
     50 H18         5.7534   -4.8109  -12.6685 H         1 <0>         0.1409
     51 H19         4.6295   -3.8416  -10.7067 H         1 <0>         0.1450
@<TRIPOS>BOND
     1    1    2 1
     2    1   35 1
     3    1   36 1
     4    1   37 1
     5    2    3 1
     6    3    8 ar
     7    3    4 ar
     8    4    5 ar
     9    4   38 1
    10    5    6 ar
    11    5   13 1
    12    6    7 ar
    13    6   39 1
    14    7    8 ar
    15    7   11 1
    16    8    9 1
    17    9   10 1
    18   10   40 1
    19   10   41 1
    20   10   42 1
    21   11   12 1
    22   12   43 1
    23   12   44 1
    24   12   45 1
    25   13   21 1
    26   13   14 2
    27   14   15 1
    28   15   20 1
    29   15   16 1
    30   16   17 1
    31   16   18 1
    32   16   22 1
    33   18   19 1
    34   18   46 1
    35   19   20 2
    36   20   21 1
    37   22   23 1
    38   22   27 1
    39   22   24 1
    40   24   25 2
    41   24   47 1
    42   25   26 1
    43   25   28 1
    44   26   27 2
    45   28   33 ar
    46   28   29 ar
    47   29   30 ar
    48   29   48 1
    49   30   31 ar
    50   30   49 1
    51   31   32 ar
    52   31   34 1
    53   32   33 ar
    54   32   50 1
    55   33   51 1
