@<TRIPOS>MOLECULE
ZINC42521288
   32    33     0     0     0
SMALL
USER_CHARGES

@<TRIPOS>ATOM
      1 C1         -0.0167    1.3779    0.0096 C.ar      1 <0>        -0.1309
      2 C2          1.1711    2.0854    0.0021 C.ar      1 <0>         0.0031
      3 C3          2.3773    1.4107   -0.0130 C.ar      1 <0>        -0.0680
      4 C4          2.3961    0.0283   -0.0201 C.ar      1 <0>         0.0499
      5 C5          1.2086   -0.6790   -0.0117 C.ar      1 <0>        -0.7059
      6 C6          0.0021   -0.0041    0.0020 C.ar      1 <0>         0.0288
      7 S1          1.2325   -2.4408   -0.0219 S.o2      1 <0>         2.6799
      8 O1         -0.0129   -2.8607   -0.5621 O.2       1 <0>        -0.9360
      9 O2          2.4774   -2.8268   -0.5880 O.2       1 <0>        -0.9093
     10 O3          1.2539   -2.8990    1.4294 O.3       1 <0>        -0.6514
     11 C7          0.0611   -2.7755    2.0648 C.ar      1 <0>         0.0833
     12 C8         -0.2501   -1.5964    2.7318 C.ar      1 <0>        -0.1314
     13 C9         -1.4593   -1.4671    3.3777 C.ar      1 <0>        -0.0407
     14 C10        -2.3742   -2.5232    3.3617 C.ar      1 <0>        -0.1171
     15 C11        -2.0577   -3.7068    2.6897 C.ar      1 <0>        -0.0663
     16 C12        -0.8484   -3.8263    2.0421 C.ar      1 <0>        -0.0945
     17 C13        -3.6713   -2.3891    4.0532 C.2       1 <0>         0.5626
     18 O4         -3.9449   -1.3587    4.6378 O.2       1 <0>        -0.5299
     19 N1         -4.5524   -3.4088    4.0367 N.am      1 <0>        -0.8462
     20 N2          3.6490    2.1682   -0.0221 N.pl3     1 <0>         0.0300
     21 O5          3.6326    3.3771   -0.0163 O.2       1 <0>        -0.1461
     22 O6          4.7040    1.5780   -0.0353 O.3       1 <0>        -0.1447
     23 H1         -0.9591    1.9051    0.0259 H         1 <0>         0.1633
     24 H2          1.1565    3.1653    0.0076 H         1 <0>         0.1662
     25 H3          3.3385   -0.4989   -0.0326 H         1 <0>         0.1732
     26 H4         -0.9258   -0.5567    0.0082 H         1 <0>         0.1618
     27 H5          0.4575   -0.7806    2.7437 H         1 <0>         0.1464
     28 H6         -1.7001   -0.5509    3.8963 H         1 <0>         0.1561
     29 H7         -2.7622   -4.5252    2.6751 H         1 <0>         0.1474
     30 H8         -0.6047   -4.7392    1.5190 H         1 <0>         0.1529
     31 H9         -4.3342   -4.2308    3.5703 H         1 <0>         0.4029
     32 H10        -5.4048   -3.3206    4.4911 H         1 <0>         0.4108
@<TRIPOS>BOND
     1    1    6 ar
     2    1    2 ar
     3    1   23 1
     4    2    3 ar
     5    2   24 1
     6    3    4 ar
     7    3   20 1
     8    4    5 ar
     9    4   25 1
    10    5    6 ar
    11    5    7 1
    12    6   26 1
    13    7    8 2
    14    7    9 2
    15    7   10 1
    16   10   11 1
    17   11   16 ar
    18   11   12 ar
    19   12   13 ar
    20   12   27 1
    21   13   14 ar
    22   13   28 1
    23   14   15 ar
    24   14   17 1
    25   15   16 ar
    26   15   29 1
    27   16   30 1
    28   17   18 2
    29   17   19 am
    30   19   31 1
    31   19   32 1
    32   20   21 2
    33   20   22 1
