@<TRIPOS>MOLECULE
ZINC65337120
   14    15     0     0     0
SMALL
USER_CHARGES

@<TRIPOS>ATOM
      1 C1         -0.0167    1.3837    0.0096 C.2       1 <0>        -0.0956
      2 C2          1.2010    2.0149    0.0014 C.2       1 <0>         0.0480
      3 C3          2.3861    1.2738   -0.2117 C.2       1 <0>        -0.0956
      4 C4          2.4467   -0.0616   -0.0939 C.2       1 <0>        -0.0495
      5 C5          1.2432   -0.8072    0.3716 C.3       1 <0>        -0.0412
      6 H1          1.2875   -0.9375    1.4529 H         1 <0>         0.2012
      7 C6          0.0021   -0.0041    0.0020 C.2       1 <0>         0.1724
      8 N1         -0.8412   -0.9351   -0.3523 N.2       1 <0>        -0.3203
      9 N2         -0.2393   -2.0460   -0.5840 N.2       1 <0>         0.0117
     10 N3          0.9580   -2.0850   -0.2649 N.2       1 <0>        -0.1777
     11 Br1         4.0413   -0.9870   -0.5145 Br        1 <0>         0.0153
     12 Cl1         1.2874    3.7304    0.2530 Cl        1 <0>        -0.0093
     13 H2         -0.9432    1.9384    0.0258 H         1 <0>         0.1778
     14 H3          3.2850    1.8077   -0.4825 H         1 <0>         0.1626
@<TRIPOS>BOND
     1    1    7 1
     2    1    2 2
     3    1   13 1
     4    2    3 1
     5    2   12 1
     6    3    4 2
     7    3   14 1
     8    4    5 1
     9    4   11 1
    10    5    6 1
    11    5   10 1
    12    5    7 1
    13    7    8 2
    14    8    9 1
    15    9   10 2
