@<TRIPOS>MOLECULE
ZINC21037411
   43    45     0     0     0
SMALL
USER_CHARGES

@<TRIPOS>ATOM
      1 C1          0.1532    1.3718    0.6372 C.ar      1 <0>        -0.1058
      2 C2          1.1727    2.0869    0.0359 C.ar      1 <0>        -0.1053
      3 C3          2.2143    1.4228   -0.5853 C.ar      1 <0>        -0.1317
      4 C4          2.2391    0.0401   -0.6068 C.ar      1 <0>         0.0692
      5 C5          1.2151   -0.6808   -0.0023 C.ar      1 <0>         0.1146
      6 C6          0.1717   -0.0093    0.6200 C.ar      1 <0>        -0.1044
      7 N1          1.2360   -2.0810   -0.0222 N.am      1 <0>        -0.6598
      8 C7          0.0851   -2.7737    0.0873 C.2       1 <0>         0.5381
      9 O1         -0.9766   -2.1874    0.1019 O.2       1 <0>        -0.4981
     10 C8          0.1173   -4.2767    0.1915 C.3       1 <0>        -0.1477
     11 S1         -1.5773   -4.9101    0.3254 S.3       1 <0>         0.0996
     12 C9         -1.3720   -6.6565    0.4376 C.2       1 <0>         0.2700
     13 N2         -2.3632   -7.5669    0.5485 N.pl3     1 <0>        -0.4539
     14 H1         -3.3158   -7.3871    0.5813 H         1 <0>         0.4505
     15 N3         -1.7428   -8.8252    0.6064 N.2       1 <0>        -0.3099
     16 C10        -0.4499   -8.6183    0.5299 C.2       1 <0>         0.4948
     17 N4         -0.2257   -7.3037    0.4224 N.2       1 <0>        -0.5643
     18 N5          0.5318   -9.6085    0.5518 N.pl3     1 <0>        -0.5330
     19 N6          0.1651  -10.9561    0.6627 N.2       1 <0>        -0.1893
     20 C11         1.0791  -11.8780    0.6830 C.2       1 <0>         0.0765
     21 C12         0.6931  -13.2963    0.7997 C.ar      1 <0>         0.0099
     22 C13        -0.6553  -13.6522    0.8828 C.ar      1 <0>        -0.0858
     23 C14        -1.0089  -14.9809    0.9918 C.ar      1 <0>        -0.0549
     24 C15        -0.0318  -15.9603    1.0194 C.ar      1 <0>        -0.0418
     25 C16         1.3058  -15.6152    0.9380 C.ar      1 <0>        -0.0552
     26 C17         1.6739  -14.2910    0.8219 C.ar      1 <0>        -0.0936
     27 N7         -0.4194  -17.3850    1.1372 N.pl3     1 <0>         0.0306
     28 O2         -1.5871  -17.6898    1.2089 O.2       1 <0>        -0.1555
     29 O3          0.4319  -18.2431    1.1615 O.3       1 <0>        -0.1557
     30 F1          3.2562   -0.6091   -1.2145 F         1 <0>        -0.1373
     31 H2         -0.6565    1.8941    1.1251 H         1 <0>         0.1361
     32 H3          1.1552    3.1666    0.0513 H         1 <0>         0.1364
     33 H4          3.0088    1.9841   -1.0543 H         1 <0>         0.1415
     34 H5         -0.6251   -0.5664    1.0903 H         1 <0>         0.1558
     35 H6          2.0788   -2.5522   -0.1147 H         1 <0>         0.4188
     36 H7          0.5914   -4.6925   -0.6976 H         1 <0>         0.1339
     37 H8          0.6848   -4.5676    1.0755 H         1 <0>         0.1351
     38 H9          1.4685   -9.3643    0.4902 H         1 <0>         0.4095
     39 H10         2.1220  -11.6060    0.6144 H         1 <0>         0.1333
     40 H11        -1.4189  -12.8888    0.8621 H         1 <0>         0.1578
     41 H12        -2.0508  -15.2576    1.0562 H         1 <0>         0.1576
     42 H13         2.0631  -16.3848    0.9608 H         1 <0>         0.1588
     43 H14         2.7180  -14.0234    0.7535 H         1 <0>         0.1541
@<TRIPOS>BOND
     1    1    6 ar
     2    1    2 ar
     3    1   31 1
     4    2    3 ar
     5    2   32 1
     6    3    4 ar
     7    3   33 1
     8    4    5 ar
     9    4   30 1
    10    5    6 ar
    11    5    7 1
    12    6   34 1
    13    7    8 am
    14    7   35 1
    15    8    9 2
    16    8   10 1
    17   10   11 1
    18   10   36 1
    19   10   37 1
    20   11   12 1
    21   12   17 2
    22   12   13 1
    23   13   14 1
    24   13   15 1
    25   15   16 2
    26   16   17 1
    27   16   18 1
    28   18   19 1
    29   18   38 1
    30   19   20 2
    31   20   21 1
    32   20   39 1
    33   21   26 ar
    34   21   22 ar
    35   22   23 ar
    36   22   40 1
    37   23   24 ar
    38   23   41 1
    39   24   25 ar
    40   24   27 1
    41   25   26 ar
    42   25   42 1
    43   26   43 1
    44   27   28 2
    45   27   29 1
