@<TRIPOS>MOLECULE
ZINC19938906
   39    41     0     0     0
SMALL
USER_CHARGES
8-(4-fluorophenyl)-3-isopropyl-2,4-dihydro-1H-pyrimido[5,4-e]pyrimidine-5,7-dione
@<TRIPOS>ATOM
      1 C1          1.7645    1.1160    2.8534 C.3       1 <0>        -0.1477
      2 C2          0.6119    1.7868    3.6034 C.3       1 <0>         0.0800
      3 C3          1.0152    2.0123    5.0619 C.3       1 <0>        -0.1935
      4 N1          0.3049    3.0786    2.9749 N.3       1 <0>        -0.5406
      5 C4         -0.8752    3.6989    3.5948 C.3       1 <0>         0.1397
      6 C5         -1.0170    5.1143    3.0988 C.2       1 <0>        -0.3645
      7 C6         -2.2315    5.7917    3.3081 C.2       1 <0>         0.5740
      8 O1         -3.1524    5.2341    3.8804 O.2       1 <0>        -0.5272
      9 N2         -2.3738    7.0584    2.8736 N.am      1 <0>        -0.6757
     10 H1         -3.3233    7.5907    3.0318 H         1 <0>         0.4618
     11 C7         -1.3596    7.6801    2.2451 C.2       1 <0>         0.7102
     12 O2         -1.5039    8.8253    1.8631 O.2       1 <0>        -0.5323
     13 N3         -0.1895    7.0540    2.0330 N.am      1 <0>        -0.5074
     14 C8         -0.0016    5.7530    2.4550 C.2       1 <0>         0.4940
     15 N4          1.2037    5.1545    2.2058 N.pl3     1 <0>        -0.7153
     16 C9          1.4514    3.9978    3.0705 C.3       1 <0>         0.2650
     17 C10         0.8500    7.7282    1.3767 C.ar      1 <0>         0.0996
     18 C11         0.9960    7.6094    0.0012 C.ar      1 <0>        -0.0708
     19 C12         2.0179    8.2777   -0.6442 C.ar      1 <0>        -0.1425
     20 C13         2.9027    9.0579    0.0812 C.ar      1 <0>         0.1224
     21 C14         2.7616    9.1737    1.4539 C.ar      1 <0>        -0.1429
     22 C15         1.7380    8.5108    2.1022 C.ar      1 <0>        -0.0604
     23 F1          3.9046    9.7071   -0.5512 F         1 <0>        -0.1294
     24 H2          1.4745    0.9539    1.8048 H         1 <0>         0.0667
     25 H3          1.9945    0.1487    3.3240 H         1 <0>         0.0660
     26 H4          2.6531    1.7632    2.8923 H         1 <0>         0.0549
     27 H5         -0.2974    1.1705    3.5452 H         1 <0>         0.0937
     28 H6          0.1865    2.4946    5.6011 H         1 <0>         0.0635
     29 H7          1.9038    2.6595    5.1007 H         1 <0>         0.0578
     30 H8          1.2452    1.0450    5.5325 H         1 <0>         0.0689
     31 H9         -1.7744    3.1246    3.3272 H         1 <0>         0.0956
     32 H10        -0.7552    3.7037    4.6882 H         1 <0>         0.0513
     33 H11         1.9529    5.4522    1.4575 H         1 <0>         0.4495
     34 H12         1.5690    4.3301    4.1125 H         1 <0>         0.0533
     35 H13         2.3654    3.4790    2.7458 H         1 <0>         0.1060
     36 H14         0.3086    6.9977   -0.5643 H         1 <0>         0.1409
     37 H15         2.1295    8.1885   -1.7147 H         1 <0>         0.1488
     38 H16         3.4526    9.7826    2.0180 H         1 <0>         0.1481
     39 H17         1.6287    8.6008    3.1728 H         1 <0>         0.1389
@<TRIPOS>BOND
     1    1    2 1
     2    1   24 1
     3    1   25 1
     4    1   26 1
     5    2    3 1
     6    2    4 1
     7    2   27 1
     8    3   28 1
     9    3   29 1
    10    3   30 1
    11    4   16 1
    12    4    5 1
    13    5    6 1
    14    5   31 1
    15    5   32 1
    16    6   14 2
    17    6    7 1
    18    7    8 2
    19    7    9 am
    20    9   10 1
    21    9   11 am
    22   11   12 2
    23   11   13 am
    24   13   14 1
    25   13   17 1
    26   14   15 1
    27   15   16 1
    28   15   33 1
    29   16   34 1
    30   16   35 1
    31   17   22 ar
    32   17   18 ar
    33   18   19 ar
    34   18   36 1
    35   19   20 ar
    36   19   37 1
    37   20   21 ar
    38   20   23 1
    39   21   22 ar
    40   21   38 1
    41   22   39 1
