@<TRIPOS>MOLECULE
ZINC39698049
   44    47     0     0     0
SMALL
USER_CHARGES

@<TRIPOS>ATOM
      1 C1         -0.0187    1.5258    0.0104 C.3       1 <0>        -0.1525
      2 C2          0.0021   -0.0041    0.0020 C.3       1 <0>         0.0466
      3 O1          0.6932   -0.4774    1.1597 O.3       1 <0>        -0.3001
      4 C3          0.8021   -1.8252    1.3058 C.ar      1 <0>         0.1123
      5 C4          0.2596   -2.6718    0.3512 C.ar      1 <0>        -0.1362
      6 C5          0.3661   -4.0451    0.4934 C.ar      1 <0>        -0.0650
      7 C6          1.0132   -4.5837    1.5866 C.ar      1 <0>        -0.0700
      8 C7          1.5650   -3.7419    2.5561 C.ar      1 <0>        -0.0705
      9 C8          1.4617   -2.3532    2.4086 C.ar      1 <0>         0.1367
     10 O2          1.9993   -1.5256    3.3433 O.3       1 <0>        -0.4619
     11 C9          2.2569   -4.3128    3.7253 C.2       1 <0>         0.1824
     12 N1          2.7685   -3.5278    4.6242 N.2       1 <0>        -0.2170
     13 N2          3.4263   -4.0705    5.7357 N.pl3     1 <0>        -0.5262
     14 C10         3.9700   -3.2361    6.6912 C.2       1 <0>         0.5814
     15 N3          3.8448   -1.9411    6.5243 N.2       1 <0>        -0.4800
     16 C11         4.3534   -1.0675    7.5791 C.3       1 <0>         0.2538
     17 H1          3.5660   -0.8717    8.3070 H         1 <0>         0.2161
     18 C12         5.4950   -1.8213    8.2460 C.2       1 <0>        -0.1048
     19 C13         6.5312   -0.9396    8.3035 C.ar      1 <0>         0.1534
     20 C14         7.8134   -1.0155    8.9017 C.ar      1 <0>        -0.1282
     21 C15         8.6349    0.0587    8.7589 C.ar      1 <0>         0.0767
     22 C16         8.2937    1.2225    8.0630 C.ar      1 <0>        -0.0275
     23 C17         7.0909    1.4079    7.4566 C.ar      1 <0>        -0.0887
     24 C18         6.1304    0.2974    7.5650 C.ar      1 <0>         0.3252
     25 N4          4.9178    0.1915    7.1139 N.pl3     1 <0>        -0.4192
     26 N5          5.3965   -3.1257    8.5211 N.2       1 <0>         0.1098
     27 N6          4.5977   -3.8019    7.7504 N.pl3     1 <0>        -0.3239
     28 Br1        -0.3792   -5.1875   -0.8163 Br        1 <0>        -0.0098
     29 H2          1.0039    1.9031    0.0027 H         1 <0>         0.0677
     30 H3         -0.5459    1.8868   -0.8726 H         1 <0>         0.0874
     31 H4         -0.5289    1.8773    0.9072 H         1 <0>         0.0677
     32 H5         -1.0205   -0.3814    0.0098 H         1 <0>         0.0701
     33 H6          0.5123   -0.3556   -0.8948 H         1 <0>         0.0700
     34 H7         -0.2487   -2.2582   -0.5072 H         1 <0>         0.1531
     35 H8          1.0930   -5.6555    1.6932 H         1 <0>         0.1520
     36 H9          1.3942   -1.2989    4.0626 H         1 <0>         0.3885
     37 H10         2.3386   -5.3842    3.8344 H         1 <0>         0.1459
     38 H11         3.4996   -5.0328    5.8338 H         1 <0>         0.4106
     39 H12         8.1258   -1.8919    9.4499 H         1 <0>         0.2025
     40 H13         9.6141    0.0096    9.2119 H         1 <0>         0.1945
     41 H14         9.0239    2.0161    8.0044 H         1 <0>         0.1987
     42 H15         6.8535    2.3181    6.9260 H         1 <0>         0.2105
     43 H16         4.4489   -4.7422    7.9362 H         1 <0>         0.4842
     44 H17         4.4628    0.8434    6.5581 H         1 <0>         0.4842
@<TRIPOS>BOND
     1    1    2 1
     2    1   29 1
     3    1   30 1
     4    1   31 1
     5    2    3 1
     6    2   32 1
     7    2   33 1
     8    3    4 1
     9    4    9 ar
    10    4    5 ar
    11    5    6 ar
    12    5   34 1
    13    6    7 ar
    14    6   28 1
    15    7    8 ar
    16    7   35 1
    17    8    9 ar
    18    8   11 1
    19    9   10 1
    20   10   36 1
    21   11   12 2
    22   11   37 1
    23   12   13 1
    24   13   14 1
    25   13   38 1
    26   14   27 1
    27   14   15 2
    28   15   16 1
    29   16   17 1
    30   16   25 1
    31   16   18 1
    32   18   19 2
    33   18   26 1
    34   19   24 ar
    35   19   20 ar
    36   20   21 ar
    37   20   39 1
    38   21   22 ar
    39   21   40 1
    40   22   23 ar
    41   22   41 1
    42   23   24 ar
    43   23   42 1
    44   24   25 2
    45   25   44 1
    46   26   27 2
    47   27   43 1
