@<TRIPOS>MOLECULE
ZINC15978729
   57    59     0     0     0
SMALL
USER_CHARGES
2-[(2Z,5R)-2-(4-acetylphenyl)imino-3-isobutyl-4-oxo-thiazolidin-5-yl]-N-(3-nitrophenyl)acetamide
@<TRIPOS>ATOM
      1 C1         -4.8933   -7.1754    0.5116 C.3       1 <0>        -0.1430
      2 C2         -5.8814   -6.3366   -0.3015 C.3       1 <0>        -0.1084
      3 C3         -7.1848   -7.1171   -0.4826 C.3       1 <0>        -0.1439
      4 C4         -6.1689   -5.0283    0.4380 C.3       1 <0>         0.0991
      5 N1         -4.9445   -4.2268    0.5064 N.am      1 <0>        -0.5409
      6 C5         -4.6882   -3.3712   -0.4684 C.2       1 <0>         0.5295
      7 O1         -5.4334   -3.2298   -1.4143 O.2       1 <0>        -0.4660
      8 C6         -3.4004   -2.5755   -0.3283 C.3       1 <0>        -0.0786
      9 H1         -2.7131   -2.7891   -1.1469 H         1 <0>         0.1647
     10 S1         -2.7701   -3.2449    1.2616 S.3       1 <0>        -0.1006
     11 C7         -4.1031   -4.3918    1.5838 C.2       1 <0>         0.4149
     12 N2         -4.2461   -5.2033    2.6093 N.2       1 <0>        -0.4626
     13 C8         -3.3031   -5.2320    3.5920 C.ar      1 <0>         0.1348
     14 C9         -1.9432   -5.2641    3.2565 C.ar      1 <0>        -0.1602
     15 C10        -0.9988   -5.2870    4.2390 C.ar      1 <0>        -0.0497
     16 C11        -1.3891   -5.2906    5.5864 C.ar      1 <0>        -0.1786
     17 C12        -2.7510   -5.2642    5.9213 C.ar      1 <0>        -0.0437
     18 C13        -3.6938   -5.2351    4.9374 C.ar      1 <0>        -0.1121
     19 C14        -0.3745   -5.3214    6.6435 C.2       1 <0>         0.3935
     20 O2         -0.7112   -5.4254    7.8046 O.2       1 <0>        -0.4570
     21 C15         1.0868   -5.2241    6.2885 C.3       1 <0>        -0.1940
     22 C16        -3.6840   -1.0756   -0.2248 C.3       1 <0>        -0.1191
     23 C17        -2.3820   -0.3245   -0.1171 C.2       1 <0>         0.5227
     24 O3         -1.3307   -0.9293   -0.1226 O.2       1 <0>        -0.5021
     25 N3         -2.3857    1.0194   -0.0146 N.am      1 <0>        -0.6685
     26 C18        -1.1775    1.7251   -0.0229 C.ar      1 <0>         0.1522
     27 C19        -0.1046    1.2592   -0.7718 C.ar      1 <0>        -0.0706
     28 C20         1.0845    1.9613   -0.7828 C.ar      1 <0>        -0.0940
     29 C21         1.2094    3.1243   -0.0449 C.ar      1 <0>        -0.0673
     30 C22         0.1451    3.5877    0.7061 C.ar      1 <0>        -0.0227
     31 C23        -1.0469    2.8898    0.7217 C.ar      1 <0>        -0.0850
     32 N4          0.2832    4.8326    1.4948 N.pl3     1 <0>         0.0264
     33 O4          1.3341    5.4483    1.4818 O.2       1 <0>        -0.1513
     34 O5         -0.6540    5.2413    2.1567 O.3       1 <0>        -0.1564
     35 H2         -5.3228   -7.3971    1.4885 H         1 <0>         0.0664
     36 H3         -4.6885   -8.1074   -0.0152 H         1 <0>         0.0551
     37 H4         -3.9648   -6.6193    0.6406 H         1 <0>         0.0461
     38 H5         -5.4518   -6.1149   -1.2784 H         1 <0>         0.0728
     39 H6         -7.8886   -6.5195   -1.0618 H         1 <0>         0.0587
     40 H7         -6.9799   -8.0491   -1.0094 H         1 <0>         0.0626
     41 H8         -7.6143   -7.3388    0.4944 H         1 <0>         0.0602
     42 H9         -6.5149   -5.2501    1.4475 H         1 <0>         0.1032
     43 H10        -6.9387   -4.4710   -0.0957 H         1 <0>         0.0983
     44 H11        -1.6431   -5.2661    2.2190 H         1 <0>         0.1370
     45 H12         0.0495   -5.3076    3.9802 H         1 <0>         0.1392
     46 H13        -3.0524   -5.2673    6.9583 H         1 <0>         0.1410
     47 H14        -4.7425   -5.2148    5.1950 H         1 <0>         0.1375
     48 H15         1.1891   -5.2276    5.2938 H         1 <0>         0.0744
     49 H16         1.4981   -4.2991    6.6928 H         1 <0>         0.0969
     50 H17         1.6210   -6.0748    6.7116 H         1 <0>         0.0948
     51 H18        -4.2901   -0.8806    0.6599 H         1 <0>         0.1175
     52 H19        -4.2215   -0.7453   -1.1136 H         1 <0>         0.1325
     53 H20        -3.2260    1.4974    0.0648 H         1 <0>         0.4202
     54 H21        -0.2016    0.3512   -1.3485 H         1 <0>         0.1548
     55 H22         1.9177    1.6019   -1.3685 H         1 <0>         0.1544
     56 H23         2.1402    3.6720   -0.0557 H         1 <0>         0.1573
     57 H24        -1.8780    3.2524    1.3083 H         1 <0>         0.1576
@<TRIPOS>BOND
     1    1    2 1
     2    1   35 1
     3    1   36 1
     4    1   37 1
     5    2    3 1
     6    2    4 1
     7    2   38 1
     8    3   39 1
     9    3   40 1
    10    3   41 1
    11    4    5 1
    12    4   42 1
    13    4   43 1
    14    5   11 1
    15    5    6 am
    16    6    7 2
    17    6    8 1
    18    8    9 1
    19    8   10 1
    20    8   22 1
    21   10   11 1
    22   11   12 2
    23   12   13 1
    24   13   18 ar
    25   13   14 ar
    26   14   15 ar
    27   14   44 1
    28   15   16 ar
    29   15   45 1
    30   16   17 ar
    31   16   19 1
    32   17   18 ar
    33   17   46 1
    34   18   47 1
    35   19   20 2
    36   19   21 1
    37   21   48 1
    38   21   49 1
    39   21   50 1
    40   22   23 1
    41   22   51 1
    42   22   52 1
    43   23   24 2
    44   23   25 am
    45   25   26 1
    46   25   53 1
    47   26   31 ar
    48   26   27 ar
    49   27   28 ar
    50   27   54 1
    51   28   29 ar
    52   28   55 1
    53   29   30 ar
    54   29   56 1
    55   30   31 ar
    56   30   32 1
    57   31   57 1
    58   32   33 2
    59   32   34 1
