@<TRIPOS>MOLECULE
ZINC49390864
   44    45     0     0     0
SMALL
USER_CHARGES

@<TRIPOS>ATOM
      1 C1         -0.0184    1.5028    0.0103 C.3       1 <0>        -0.0875
      2 C2          0.0021   -0.0041    0.0020 C.2       1 <0>         0.1352
      3 C3          0.0080   -0.8179   -1.1355 C.2       1 <0>        -0.1897
      4 C4          0.0273   -2.1072   -0.7249 C.2       1 <0>         0.1740
      5 N1          0.0335   -2.1090    0.6245 N.pl3     1 <0>        -0.3392
      6 N2          0.0231   -0.7768    1.0576 N.2       1 <0>        -0.2574
      7 C5          0.0535   -3.2948    1.4847 C.3       1 <0>         0.1122
      8 C6          1.4810   -3.6821    1.7732 C.2       1 <0>         0.4978
      9 O1          2.3920   -3.0317    1.3063 O.2       1 <0>        -0.5156
     10 N3          1.7453   -4.7512    2.5501 N.am      1 <0>        -0.6064
     11 C7          0.6525   -5.5525    3.1178 C.3       1 <0>         0.1022
     12 C8          0.8505   -5.6528    4.6336 C.3       1 <0>        -0.1328
     13 C9          2.2492   -6.2006    4.9261 C.3       1 <0>        -0.0731
     14 C10         3.3021   -5.2428    4.3637 C.3       1 <0>        -0.1346
     15 C11         3.1318   -5.1412    2.8403 C.3       1 <0>         0.1140
     16 C12         2.4382   -6.3347    6.4385 C.3       1 <0>        -0.1400
     17 C13         3.7661   -6.9878    6.7229 C.2       1 <0>         0.5149
     18 O2          4.4902   -7.3140    5.8062 O.2       1 <0>        -0.5388
     19 N4          4.1492   -7.2095    7.9959 N.am      1 <0>        -0.8580
     20 C14         0.0394   -3.3231   -1.6152 C.3       1 <0>        -0.1125
     21 N5         -0.0055   -0.3514   -2.5402 N.pl3     1 <0>         0.0563
     22 O3          1.0360   -0.1466   -3.1191 O.2       1 <0>        -0.1333
     23 O4         -1.0579   -0.1752   -3.1086 O.3       1 <0>        -0.1383
     24 H1          1.0042    1.8801    0.0026 H         1 <0>         0.0936
     25 H2         -0.5455    1.8639   -0.8728 H         1 <0>         0.0819
     26 H3         -0.5286    1.8543    0.9071 H         1 <0>         0.0922
     27 H4         -0.4592   -3.0733    2.4208 H         1 <0>         0.1371
     28 H5         -0.4515   -4.1184    0.9799 H         1 <0>         0.1311
     29 H6         -0.3022   -5.0713    2.9051 H         1 <0>         0.0838
     30 H7          0.6662   -6.5509    2.6807 H         1 <0>         0.0804
     31 H8          0.7464   -4.6640    5.0803 H         1 <0>         0.0717
     32 H9          0.1017   -6.3235    5.0548 H         1 <0>         0.0827
     33 H10         2.3613   -7.1787    4.4582 H         1 <0>         0.0844
     34 H11         3.1748   -4.2579    4.8129 H         1 <0>         0.0625
     35 H12         4.2980   -5.6217    4.5928 H         1 <0>         0.0970
     36 H13         3.3436   -6.1068    2.3810 H         1 <0>         0.0745
     37 H14         3.8136   -4.3886    2.4444 H         1 <0>         0.0938
     38 H15         2.4140   -5.3460    6.8967 H         1 <0>         0.0955
     39 H16         1.6364   -6.9465    6.8520 H         1 <0>         0.0975
     40 H17         3.5701   -6.9487    8.7291 H         1 <0>         0.4020
     41 H18         5.0040   -7.6299    8.1790 H         1 <0>         0.4025
     42 H19         1.0698   -3.6026   -1.8345 H         1 <0>         0.1025
     43 H20        -0.4613   -4.1487   -1.1094 H         1 <0>         0.0894
     44 H21        -0.4817   -3.0973   -2.5456 H         1 <0>         0.0944
@<TRIPOS>BOND
     1    1    2 1
     2    1   24 1
     3    1   25 1
     4    1   26 1
     5    2    6 2
     6    2    3 1
     7    3    4 2
     8    3   21 1
     9    4    5 1
    10    4   20 1
    11    5    6 1
    12    5    7 1
    13    7    8 1
    14    7   27 1
    15    7   28 1
    16    8    9 2
    17    8   10 am
    18   10   15 1
    19   10   11 1
    20   11   12 1
    21   11   29 1
    22   11   30 1
    23   12   13 1
    24   12   31 1
    25   12   32 1
    26   13   14 1
    27   13   16 1
    28   13   33 1
    29   14   15 1
    30   14   34 1
    31   14   35 1
    32   15   36 1
    33   15   37 1
    34   16   17 1
    35   16   38 1
    36   16   39 1
    37   17   18 2
    38   17   19 am
    39   19   40 1
    40   19   41 1
    41   20   42 1
    42   20   43 1
    43   20   44 1
    44   21   22 2
    45   21   23 1
