@<TRIPOS>MOLECULE
ZINC06781482
   52    54     0     0     0
SMALL
USER_CHARGES

@<TRIPOS>ATOM
      1 C1          1.5949    1.3101   -0.9570 C.3       1 <0>        -0.1395
      2 C2          1.1818   -0.1426   -0.7125 C.3       1 <0>         0.0125
      3 C3          2.0244   -0.7282    0.4225 C.3       1 <0>        -0.1523
      4 C4         -0.2982   -0.1942   -0.3280 C.3       1 <0>        -0.1454
      5 C5          1.4029   -0.9459   -1.9682 C.2       1 <0>         0.1373
      6 C6          1.0323   -2.2693   -2.1651 C.2       1 <0>        -0.2577
      7 C7          1.4058   -2.6301   -3.4297 C.2       1 <0>         0.2725
      8 N1          1.9912   -1.5646   -3.9996 N.pl3     1 <0>        -0.4483
      9 H1          2.3573   -1.5259   -4.8970 H         1 <0>         0.4463
     10 N2          1.9741   -0.5149   -3.0678 N.2       1 <0>        -0.2573
     11 O1          1.1810   -3.8688   -3.9343 O.3       1 <0>        -0.2310
     12 C8          0.3312   -4.6719   -3.2625 C.2       1 <0>         0.4404
     13 C9         -0.0992   -4.4277   -2.0049 C.2       1 <0>        -0.2569
     14 C10         0.3413   -3.2176   -1.2196 C.3       1 <0>         0.1204
     15 H2         -0.5277   -2.7292   -0.7787 H         1 <0>         0.1002
     16 C11         1.2963   -3.6369   -0.1319 C.ar      1 <0>        -0.0609
     17 C12         2.6236   -3.8777   -0.4345 C.ar      1 <0>        -0.0970
     18 C13         3.5036   -4.2626    0.5598 C.ar      1 <0>        -0.1706
     19 C14         3.0560   -4.4074    1.8631 C.ar      1 <0>         0.0967
     20 C15         1.7202   -4.1645    2.1678 C.ar      1 <0>         0.1116
     21 C16         0.8444   -3.7744    1.1674 C.ar      1 <0>        -0.1661
     22 O2          1.2761   -4.3052    3.4455 O.3       1 <0>        -0.3015
     23 C17        -0.1074   -4.0393    3.6845 C.3       1 <0>         0.0248
     24 O3          3.9203   -4.7863    2.8423 O.3       1 <0>        -0.2783
     25 C18         5.2764   -5.0189    2.4564 C.3       1 <0>         0.0384
     26 C19         6.0796   -5.4272    3.6644 C.2       1 <0>         0.5185
     27 O4          5.5434   -5.5108    4.7491 O.2       1 <0>        -0.5132
     28 N3          7.3936   -5.6994    3.5394 N.am      1 <0>        -0.8516
     29 C20        -1.0069   -5.3524   -1.3952 C.1       1 <0>         0.2693
     30 N4         -1.7270   -6.0859   -0.9114 N.1       1 <0>        -0.4368
     31 N5         -0.1234   -5.8034   -3.8930 N.pl3     1 <0>        -0.8314
     32 H3          2.6492    1.3469   -1.2310 H         1 <0>         0.0610
     33 H4          0.9946    1.7273   -1.7656 H         1 <0>         0.0589
     34 H5          1.4350    1.8912   -0.0488 H         1 <0>         0.0614
     35 H6          1.9893   -0.0601    1.2830 H         1 <0>         0.0628
     36 H7          1.6276   -1.7037    0.7035 H         1 <0>         0.0770
     37 H8          3.0564   -0.8379    0.0895 H         1 <0>         0.0560
     38 H9         -0.9060    0.1048   -1.1819 H         1 <0>         0.0593
     39 H10        -0.5615   -1.2098   -0.0323 H         1 <0>         0.0637
     40 H11        -0.4813    0.4855    0.5042 H         1 <0>         0.0678
     41 H12         2.9737   -3.7653   -1.4500 H         1 <0>         0.1198
     42 H13         4.5398   -4.4508    0.3206 H         1 <0>         0.1328
     43 H14        -0.1921   -3.5817    1.4019 H         1 <0>         0.1356
     44 H15        -0.7163   -4.7174    3.0865 H         1 <0>         0.0545
     45 H16        -0.3288   -4.1885    4.7413 H         1 <0>         0.1015
     46 H17        -0.3325   -3.0093    3.4080 H         1 <0>         0.0565
     47 H18         5.3110   -5.8139    1.7115 H         1 <0>         0.0928
     48 H19         5.6954   -4.1060    2.0331 H         1 <0>         0.0937
     49 H20         7.8224   -5.6326    2.6719 H         1 <0>         0.4028
     50 H21         7.9106   -5.9622    4.3170 H         1 <0>         0.4095
     51 H22         0.1675   -6.0055   -4.7960 H         1 <0>         0.4113
     52 H23        -0.7356   -6.4008   -3.4355 H         1 <0>         0.4279
@<TRIPOS>BOND
     1    1    2 1
     2    1   32 1
     3    1   33 1
     4    1   34 1
     5    2    3 1
     6    2    4 1
     7    2    5 1
     8    3   35 1
     9    3   36 1
    10    3   37 1
    11    4   38 1
    12    4   39 1
    13    4   40 1
    14    5   10 2
    15    5    6 1
    16    6   14 1
    17    6    7 2
    18    7    8 1
    19    7   11 1
    20    8    9 1
    21    8   10 1
    22   11   12 1
    23   12   13 2
    24   12   31 1
    25   13   14 1
    26   13   29 1
    27   14   15 1
    28   14   16 1
    29   16   21 ar
    30   16   17 ar
    31   17   18 ar
    32   17   41 1
    33   18   19 ar
    34   18   42 1
    35   19   20 ar
    36   19   24 1
    37   20   21 ar
    38   20   22 1
    39   21   43 1
    40   22   23 1
    41   23   44 1
    42   23   45 1
    43   23   46 1
    44   24   25 1
    45   25   26 1
    46   25   47 1
    47   25   48 1
    48   26   27 2
    49   26   28 am
    50   28   49 1
    51   28   50 1
    52   29   30 3
    53   31   51 1
    54   31   52 1
