@<TRIPOS>MOLECULE
ZINC00056013
   31    32     0     0     0
SMALL
USER_CHARGES
N-[(2-chlorophenyl)methyleneamino]-2-(3,5-dioxo-2H-1,2,4-triazin-6-yl)-acetamide
@<TRIPOS>ATOM
      1 C1         -0.0126    1.0758    0.0080 C.ar      1 <0>        -0.1215
      2 C2         -1.2215    1.7495    0.0174 C.ar      1 <0>        -0.0917
      3 C3         -1.2505    3.1323    0.0308 C.ar      1 <0>        -0.1185
      4 C4         -0.0712    3.8507    0.0234 C.ar      1 <0>        -0.0140
      5 C5          1.1531    3.1764    0.0081 C.ar      1 <0>        -0.0493
      6 C6          1.1734    1.7796    0.0004 C.ar      1 <0>        -0.0799
      7 C7          2.4172    3.9358    0.0006 C.2       1 <0>         0.0923
      8 N1          2.3946    5.2333    0.0078 N.2       1 <0>        -0.1958
      9 N2          3.5956    5.9547    0.0007 N.am      1 <0>        -0.5882
     10 C8          3.5722    7.3023    0.0081 C.2       1 <0>         0.5247
     11 O1          2.5113    7.8905    0.0210 O.2       1 <0>        -0.4589
     12 C9          4.8640    8.0783    0.0004 C.3       1 <0>        -0.0587
     13 C10         4.5630    9.5549    0.0111 C.2       1 <0>         0.0439
     14 C11         5.6523   10.5356    0.0064 C.2       1 <0>         0.5348
     15 O2          6.8124   10.1678   -0.0062 O.2       1 <0>        -0.4799
     16 N3          5.3529   11.8511    0.0158 N.am      1 <0>        -0.6582
     17 H1          6.0865   12.5307    0.0124 H         1 <0>         0.4441
     18 C12         4.0669   12.2492    0.0297 C.2       1 <0>         0.6788
     19 O3          3.8080   13.4372    0.0380 O.2       1 <0>        -0.5335
     20 N4          3.0644   11.3528    0.0341 N.am      1 <0>        -0.5462
     21 H2          2.1169   11.6723    0.0481 H         1 <0>         0.4658
     22 N5          3.3296    9.9783    0.0193 N.2       1 <0>        -0.0968
     23 Cl1        -0.1091    5.5863    0.0325 Cl        1 <0>        -0.0152
     24 H3          0.0021   -0.0041    0.0020 H         1 <0>         0.1340
     25 H4         -2.1469    1.1927    0.0187 H         1 <0>         0.1342
     26 H5         -2.1975    3.6514    0.0427 H         1 <0>         0.1366
     27 H6          2.1157    1.2521   -0.0118 H         1 <0>         0.1372
     28 H7          3.3616    3.4122   -0.0109 H         1 <0>         0.1266
     29 H8          4.4439    5.4844   -0.0096 H         1 <0>         0.3854
     30 H9          5.4482    7.8202    0.8837 H         1 <0>         0.1341
     31 H10         5.4319    7.8298   -0.8961 H         1 <0>         0.1339
@<TRIPOS>BOND
     1    1    6 ar
     2    1    2 ar
     3    1   24 1
     4    2    3 ar
     5    2   25 1
     6    3    4 ar
     7    3   26 1
     8    4    5 ar
     9    4   23 1
    10    5    6 ar
    11    5    7 1
    12    6   27 1
    13    7    8 2
    14    7   28 1
    15    8    9 1
    16    9   10 am
    17    9   29 1
    18   10   11 2
    19   10   12 1
    20   12   13 1
    21   12   30 1
    22   12   31 1
    23   13   22 2
    24   13   14 1
    25   14   15 2
    26   14   16 am
    27   16   17 1
    28   16   18 am
    29   18   19 2
    30   18   20 am
    31   20   21 1
    32   20   22 1
