@<TRIPOS>MOLECULE
ZINC39972357
   60    62     0     0     0
SMALL
USER_CHARGES

@<TRIPOS>ATOM
      1 C1          0.1898    1.4886   -0.0643 C.3       1 <0>        -0.1737
      2 C2          0.3376   -0.0304   -0.1723 C.3       1 <0>         0.0931
      3 N1          0.8787   -0.3759   -1.4892 N.pl3     1 <0>        -0.4495
      4 C3          0.1713   -0.6356   -2.6304 C.2       1 <0>         0.1824
      5 N2          1.0344   -0.8977   -3.5706 N.2       1 <0>        -0.2482
      6 N3          2.2301   -0.8220   -3.1055 N.2       1 <0>        -0.2929
      7 C4          2.1942   -0.4998   -1.8333 C.2       1 <0>         0.1460
      8 S1          3.5810   -0.2733   -0.7703 S.3       1 <0>         0.0905
      9 C5          5.0111   -0.5828   -1.8426 C.3       1 <0>        -0.1454
     10 C6          6.2803   -0.4199   -1.0467 C.2       1 <0>         0.5331
     11 O1          6.2256   -0.1241    0.1282 O.2       1 <0>        -0.4820
     12 N4          7.4763   -0.6029   -1.6406 N.am      1 <0>        -0.6125
     13 C7          8.6442   -0.4530   -0.9083 C.2       1 <0>         0.0357
     14 C8          9.9516   -0.5951   -1.3495 C.2       1 <0>        -0.2319
     15 C9         10.9914   -0.3809   -0.3691 C.2       1 <0>        -0.0708
     16 C10        10.5729   -0.0654    0.8705 C.2       1 <0>        -0.2172
     17 S2          8.8005   -0.0508    0.7131 S.3       1 <0>         0.2829
     18 C11        11.4050    0.2142    2.0953 C.3       1 <0>        -0.0659
     19 C12        12.4534   -0.5037   -0.7132 C.3       1 <0>        -0.0978
     20 C13        10.2625   -0.9451   -2.7390 C.2       1 <0>         0.5855
     21 O2         10.4182   -0.0673   -3.5675 O.2       1 <0>        -0.5317
     22 N5         10.3759   -2.2390   -3.0988 N.am      1 <0>        -0.8480
     23 C14        -1.3288   -0.6217   -2.7738 C.3       1 <0>         0.1820
     24 H1         -1.7885   -0.6357   -1.7856 H         1 <0>         0.0895
     25 C15        -1.7583    0.6442   -3.5181 C.3       1 <0>        -0.1749
     26 O3         -1.7476   -1.7725   -3.5102 O.3       1 <0>        -0.2918
     27 C16        -3.0184   -2.2096   -3.3024 C.ar      1 <0>         0.0927
     28 C17        -3.8808   -1.4780   -2.4995 C.ar      1 <0>        -0.1721
     29 C18        -5.1717   -1.9220   -2.2884 C.ar      1 <0>        -0.1103
     30 C19        -5.6055   -3.0993   -2.8797 C.ar      1 <0>         0.0941
     31 C20        -4.7434   -3.8304   -3.6833 C.ar      1 <0>        -0.1662
     32 C21        -3.4539   -3.3841   -3.8979 C.ar      1 <0>        -0.1050
     33 O4         -6.8760   -3.5368   -2.6711 O.3       1 <0>        -0.3176
     34 C22        -7.2552   -4.7569   -3.3111 C.3       1 <0>         0.0261
     35 H2          1.1651    1.9585   -0.1911 H         1 <0>         0.0718
     36 H3         -0.4882    1.8438   -0.8403 H         1 <0>         0.0657
     37 H4         -0.2128    1.7457    0.9154 H         1 <0>         0.0883
     38 H5          1.0156   -0.3856    0.6037 H         1 <0>         0.1058
     39 H6         -0.6377   -0.5003   -0.0456 H         1 <0>         0.1015
     40 H7          4.9569   -1.5977   -2.2365 H         1 <0>         0.1359
     41 H8          5.0064    0.1282   -2.6687 H         1 <0>         0.1364
     42 H9          7.5200   -0.8394   -2.5803 H         1 <0>         0.4230
     43 H10        11.6314    1.2792    2.1454 H         1 <0>         0.0775
     44 H11        10.8512   -0.0818    2.9862 H         1 <0>         0.0732
     45 H12        12.3345   -0.3526    2.0403 H         1 <0>         0.0794
     46 H13        12.8319    0.4643   -1.0417 H         1 <0>         0.0747
     47 H14        13.0075   -0.8309    0.1665 H         1 <0>         0.0743
     48 H15        12.5784   -1.2332   -1.5134 H         1 <0>         0.0619
     49 H16        10.2518   -2.9387   -2.4385 H         1 <0>         0.4037
     50 H17        10.5815   -2.4706   -4.0180 H         1 <0>         0.4040
     51 H18        -1.2987    0.6582   -4.5064 H         1 <0>         0.0826
     52 H19        -2.8433    0.6543   -3.6219 H         1 <0>         0.0801
     53 H20        -1.4388    1.5220   -2.9564 H         1 <0>         0.0749
     54 H21        -3.5430   -0.5613   -2.0390 H         1 <0>         0.1352
     55 H22        -5.8430   -1.3527   -1.6626 H         1 <0>         0.1357
     56 H23        -5.0811   -4.7472   -4.1435 H         1 <0>         0.1368
     57 H24        -2.7837   -3.9515   -4.5267 H         1 <0>         0.1363
     58 H25        -7.1571   -4.6465   -4.3911 H         1 <0>         0.0561
     59 H26        -6.6076   -5.5637   -2.9681 H         1 <0>         0.0557
     60 H27        -8.2903   -4.9912   -3.0625 H         1 <0>         0.1013
@<TRIPOS>BOND
     1    1    2 1
     2    1   35 1
     3    1   36 1
     4    1   37 1
     5    2    3 1
     6    2   38 1
     7    2   39 1
     8    3    7 1
     9    3    4 1
    10    4    5 2
    11    4   23 1
    12    5    6 1
    13    6    7 2
    14    7    8 1
    15    8    9 1
    16    9   10 1
    17    9   40 1
    18    9   41 1
    19   10   11 2
    20   10   12 am
    21   12   13 1
    22   12   42 1
    23   13   17 1
    24   13   14 2
    25   14   15 1
    26   14   20 1
    27   15   16 2
    28   15   19 1
    29   16   17 1
    30   16   18 1
    31   18   43 1
    32   18   44 1
    33   18   45 1
    34   19   46 1
    35   19   47 1
    36   19   48 1
    37   20   21 2
    38   20   22 am
    39   22   49 1
    40   22   50 1
    41   23   24 1
    42   23   25 1
    43   23   26 1
    44   25   51 1
    45   25   52 1
    46   25   53 1
    47   26   27 1
    48   27   32 ar
    49   27   28 ar
    50   28   29 ar
    51   28   54 1
    52   29   30 ar
    53   29   55 1
    54   30   31 ar
    55   30   33 1
    56   31   32 ar
    57   31   56 1
    58   32   57 1
    59   33   34 1
    60   34   58 1
    61   34   59 1
    62   34   60 1
