@<TRIPOS>MOLECULE
ZINC44713725
   70    73     0     0     0
SMALL
USER_CHARGES

@<TRIPOS>ATOM
      1 C1         -3.6609    1.0726   -1.0102 C.3       1 <0>        -0.1086
      2 C2         -2.8176    2.2640   -1.3849 C.2       1 <0>         0.0991
      3 C3         -1.6663    2.2347   -2.0953 C.2       1 <0>        -0.2526
      4 C4         -1.2048    3.5490   -2.2215 C.2       1 <0>         0.0946
      5 N1         -2.0488    4.3391   -1.6089 N.2       1 <0>        -0.2831
      6 N2         -3.0783    3.5518   -1.0773 N.pl3     1 <0>        -0.4697
      7 H1         -3.8425    3.8750   -0.5748 H         1 <0>         0.4420
      8 C5          0.0485    3.9805   -2.9385 C.3       1 <0>        -0.0821
      9 C6         -0.9989    1.0034   -2.6518 C.3       1 <0>         0.2260
     10 H2         -0.2416    1.2976   -3.3785 H         1 <0>         0.0972
     11 C7         -0.3378    0.2232   -1.5137 C.3       1 <0>        -0.1643
     12 N3         -2.0009    0.1581   -3.3057 N.am      1 <0>        -0.7246
     13 C8         -1.6177   -0.7635   -4.2114 C.2       1 <0>         0.5204
     14 O1         -0.4433   -0.8929   -4.4851 O.2       1 <0>        -0.5156
     15 C9         -2.6484   -1.6330   -4.8840 C.3       1 <0>        -0.1141
     16 H3         -3.4416   -1.8919   -4.1826 H         1 <0>         0.1114
     17 C10        -1.9889   -2.9121   -5.4464 C.3       1 <0>         0.1169
     18 N4         -2.6929   -3.1649   -6.7257 N.am      1 <0>        -0.6231
     19 C11        -2.8830   -1.8176   -7.3144 C.3       1 <0>         0.1004
     20 C12        -3.2332   -0.9170   -6.1131 C.3       1 <0>        -0.0731
     21 C13        -2.5912    0.4569   -6.2795 C.3       1 <0>        -0.1491
     22 C14        -3.2302    1.1729   -7.4728 C.3       1 <0>        -0.0077
     23 N5         -4.6743    1.3094   -7.2480 N.4       1 <0>        -0.5049
     24 C15        -5.2984   -0.0176   -7.1821 C.3       1 <0>        -0.0114
     25 C16        -4.7469   -0.7839   -5.9764 C.3       1 <0>        -0.1348
     26 C17        -3.0746   -4.3516   -7.2380 C.2       1 <0>         0.5925
     27 O2         -2.9318   -5.3691   -6.5873 O.2       1 <0>        -0.5018
     28 C18        -3.6648   -4.4162   -8.5861 C.ar      1 <0>        -0.2132
     29 C19        -3.2188   -3.5506   -9.5900 C.ar      1 <0>        -0.0163
     30 C20        -3.7719   -3.6143  -10.8477 C.ar      1 <0>        -0.2558
     31 C21        -4.7756   -4.5375  -11.1261 C.ar      1 <0>         0.2002
     32 C22        -5.2257   -5.4003  -10.1380 C.ar      1 <0>        -0.2540
     33 C23        -4.6725   -5.3502   -8.8699 C.ar      1 <0>         0.2264
     34 O3         -5.1075   -6.1970   -7.9034 O.3       1 <0>        -0.2871
     35 C24        -6.1359   -7.1208   -8.2652 C.3       1 <0>         0.0190
     36 O4         -5.3164   -4.5934  -12.3696 O.3       1 <0>        -0.3080
     37 C25        -4.8074   -3.6764  -13.3402 C.3       1 <0>         0.0240
     38 H4         -4.3958    0.8869   -1.7934 H         1 <0>         0.0780
     39 H5         -3.0222    0.1968   -0.8961 H         1 <0>         0.0936
     40 H6         -4.1747    1.2726   -0.0699 H         1 <0>         0.0824
     41 H7         -0.1990    4.2726   -3.9590 H         1 <0>         0.0776
     42 H8          0.4928    4.8276   -2.4158 H         1 <0>         0.0803
     43 H9          0.7582    3.1535   -2.9593 H         1 <0>         0.0812
     44 H10         0.1449   -0.6673   -1.9162 H         1 <0>         0.0675
     45 H11         0.4078    0.8522   -1.0272 H         1 <0>         0.0709
     46 H12        -1.0950   -0.0709   -0.7870 H         1 <0>         0.0578
     47 H13        -2.9402    0.2617   -3.0868 H         1 <0>         0.3953
     48 H14        -0.9265   -2.7454   -5.6238 H         1 <0>         0.0999
     49 H15        -2.1342   -3.7473   -4.7612 H         1 <0>         0.0965
     50 H16        -1.9635   -1.4774   -7.7907 H         1 <0>         0.0860
     51 H17        -3.7030   -1.8283   -8.0324 H         1 <0>         0.0877
     52 H18        -2.7495    1.0445   -5.3753 H         1 <0>         0.1004
     53 H19        -1.5218    0.3399   -6.4554 H         1 <0>         0.1255
     54 H20        -2.7849    2.1615   -7.5840 H         1 <0>         0.1392
     55 H21        -3.0571    0.5930   -8.3794 H         1 <0>         0.1329
     56 H22        -4.8334    1.7980   -6.3796 H         1 <0>         0.4277
     57 H23        -6.3778    0.0935   -7.0789 H         1 <0>         0.1393
     58 H24        -5.0760   -0.5692   -8.0955 H         1 <0>         0.1331
     59 H25        -5.1975   -1.7757   -5.9386 H         1 <0>         0.1199
     60 H26        -4.9833   -0.2411   -5.0612 H         1 <0>         0.0952
     61 H27        -2.4407   -2.8324   -9.3778 H         1 <0>         0.1354
     62 H28        -3.4265   -2.9452  -11.6219 H         1 <0>         0.1377
     63 H29        -6.0050   -6.1146  -10.3591 H         1 <0>         0.1474
     64 H30        -5.7831   -7.7582   -9.0760 H         1 <0>         0.0641
     65 H31        -6.3904   -7.7372   -7.4030 H         1 <0>         0.1090
     66 H32        -7.0188   -6.5718   -8.5926 H         1 <0>         0.0607
     67 H33        -5.3241   -3.8267  -14.2882 H         1 <0>         0.1080
     68 H34        -4.9703   -2.6552  -12.9957 H         1 <0>         0.0582
     69 H35        -3.7397   -3.8477  -13.4772 H         1 <0>         0.0627
     70 H36        -5.0832    1.8346   -8.0062 H         1 <0>         0.4336
@<TRIPOS>BOND
     1    1    2 1
     2    1   38 1
     3    1   39 1
     4    1   40 1
     5    2    6 1
     6    2    3 2
     7    3    4 1
     8    3    9 1
     9    4    5 2
    10    4    8 1
    11    5    6 1
    12    6    7 1
    13    8   41 1
    14    8   42 1
    15    8   43 1
    16    9   10 1
    17    9   11 1
    18    9   12 1
    19   11   44 1
    20   11   45 1
    21   11   46 1
    22   12   13 am
    23   12   47 1
    24   13   14 2
    25   13   15 1
    26   15   16 1
    27   15   20 1
    28   15   17 1
    29   17   18 1
    30   17   48 1
    31   17   49 1
    32   18   19 1
    33   18   26 am
    34   19   20 1
    35   19   50 1
    36   19   51 1
    37   20   25 1
    38   20   21 1
    39   21   22 1
    40   21   52 1
    41   21   53 1
    42   22   23 1
    43   22   54 1
    44   22   55 1
    45   23   24 1
    46   23   56 1
    47   23   70 1
    48   24   25 1
    49   24   57 1
    50   24   58 1
    51   25   59 1
    52   25   60 1
    53   26   27 2
    54   26   28 1
    55   28   33 ar
    56   28   29 ar
    57   29   30 ar
    58   29   61 1
    59   30   31 ar
    60   30   62 1
    61   31   32 ar
    62   31   36 1
    63   32   33 ar
    64   32   63 1
    65   33   34 1
    66   34   35 1
    67   35   64 1
    68   35   65 1
    69   35   66 1
    70   36   37 1
    71   37   67 1
    72   37   68 1
    73   37   69 1
