@<TRIPOS>MOLECULE
ZINC19899358
   65    68     0     0     0
SMALL
USER_CHARGES
methyl 2-[(4Z)-1-(1,3-benzothiazol-2-yl)-5-oxo-4-[1-[(2,2,6,6-tetramethyl-4-piperidyl)amino]ethylidene]pyrazol-3-yl]acetate
@<TRIPOS>ATOM
      1 C1         -4.2639    6.0480    0.2310 C.3       1 <0>        -0.1635
      2 C2         -2.8008    5.7097    0.1048 C.2       1 <0>         0.3511
      3 C3         -2.3955    4.3861    0.0846 C.2       1 <0>        -0.3789
      4 C4         -3.2486    3.1883    0.0588 C.2       1 <0>         0.1579
      5 N1         -2.4680    2.1517    0.0463 N.2       1 <0>        -0.1965
      6 N2         -1.1251    2.5277    0.0614 N.am      1 <0>        -0.3692
      7 C5         -1.0205    3.8718    0.0899 C.2       1 <0>         0.5459
      8 O1          0.0075    4.5270    0.1130 O.2       1 <0>        -0.5022
      9 C6         -0.0529    1.6469    0.0542 C.2       1 <0>         0.3946
     10 N3          1.2321    1.9142    0.0618 N.2       1 <0>        -0.5197
     11 C7          2.1748    0.9476    0.0480 C.ar      1 <0>         0.0984
     12 C8          3.5810    1.0990    0.0540 C.ar      1 <0>        -0.0653
     13 C9          4.4032    0.0031    0.0377 C.ar      1 <0>        -0.1060
     14 C10         3.8919   -1.2867    0.0149 C.ar      1 <0>        -0.0971
     15 C11         2.5218   -1.4721    0.0084 C.ar      1 <0>        -0.0603
     16 C12         1.6901   -0.3802    0.0246 C.ar      1 <0>        -0.1597
     17 S1         -0.0702   -0.1400    0.0243 S.3       1 <0>         0.0629
     18 C13        -4.7555    3.1684    0.0481 C.3       1 <0>        -0.0404
     19 C14        -5.2382    1.7460   -0.0730 C.2       1 <0>         0.4452
     20 O2         -4.4405    0.8412   -0.1436 O.2       1 <0>        -0.4614
     21 O3         -6.5544    1.4842   -0.1027 O.3       1 <0>        -0.3612
     22 C15        -6.9469    0.0912   -0.2208 C.3       1 <0>         0.0330
     23 N4         -1.8862    6.6964    0.0115 N.pl3     1 <0>        -0.6927
     24 C16        -2.3160    8.1001    0.0329 C.3       1 <0>         0.1222
     25 C17        -2.6905    8.5340   -1.3842 C.3       1 <0>        -0.1511
     26 C18        -3.1108   10.0013   -1.4012 C.3       1 <0>         0.0687
     27 N5         -2.1819   10.8679   -0.7057 N.4       1 <0>        -0.5159
     28 C19        -1.5863   10.4396    0.5445 C.3       1 <0>         0.0578
     29 C20        -1.1551    8.9737    0.5122 C.3       1 <0>        -0.1434
     30 C21        -2.5333   10.6740    1.7253 C.3       1 <0>        -0.1798
     31 C22        -0.3216   11.2907    0.7927 C.3       1 <0>        -0.1817
     32 C23        -4.5276   10.1348   -0.8298 C.3       1 <0>        -0.1792
     33 C24        -3.1715   10.4496   -2.8789 C.3       1 <0>        -0.1796
     34 H1         -4.3890    7.1409    0.2290 H         1 <0>         0.0828
     35 H2         -4.6556    5.6358    1.1726 H         1 <0>         0.1135
     36 H3         -4.8149    5.6143   -0.6165 H         1 <0>         0.1129
     37 H4          4.0114    2.0894    0.0719 H         1 <0>         0.1322
     38 H5          5.4736    0.1464    0.0423 H         1 <0>         0.1364
     39 H6          4.5575   -2.1371    0.0019 H         1 <0>         0.1415
     40 H7          2.1085   -2.4698   -0.0096 H         1 <0>         0.1363
     41 H8         -5.1346    3.6059    0.9834 H         1 <0>         0.1386
     42 H9         -5.1239    3.7547   -0.8066 H         1 <0>         0.1363
     43 H10        -8.0445    0.0193   -0.2334 H         1 <0>         0.1065
     44 H11        -6.5522   -0.4748    0.6358 H         1 <0>         0.0673
     45 H12        -6.5414   -0.3261   -1.1543 H         1 <0>         0.0668
     46 H13        -0.8182    6.4495   -0.0806 H         1 <0>         0.4562
     47 H14        -3.1780    8.1683    0.7128 H         1 <0>         0.1112
     48 H15        -1.8238    8.4031   -2.0488 H         1 <0>         0.0994
     49 H16        -3.5270    7.9187   -1.7471 H         1 <0>         0.1150
     50 H17        -1.3177   11.0746   -1.3540 H         1 <0>         0.4461
     51 H18        -0.8544    8.6615    1.5232 H         1 <0>         0.1190
     52 H19        -0.3034    8.8610   -0.1748 H         1 <0>         0.1005
     53 H20        -2.0503   10.3385    2.6549 H         1 <0>         0.1060
     54 H21        -3.4620   10.1057    1.5689 H         1 <0>         0.0801
     55 H22        -2.7677   11.7461    1.8001 H         1 <0>         0.0872
     56 H23         0.1481   10.9824    1.7384 H         1 <0>         0.1089
     57 H24        -0.6003   12.3532    0.8510 H         1 <0>         0.0873
     58 H25         0.3881   11.1427   -0.0346 H         1 <0>         0.0840
     59 H26        -4.8299   11.1924   -0.8423 H         1 <0>         0.0858
     60 H27        -4.5424    9.7615    0.2048 H         1 <0>         0.0802
     61 H28        -5.2268    9.5463   -1.4420 H         1 <0>         0.1068
     62 H29        -3.4725   11.5064   -2.9294 H         1 <0>         0.0852
     63 H30        -3.9051    9.8332   -3.4192 H         1 <0>         0.1066
     64 H31        -2.1802   10.3282   -3.3399 H         1 <0>         0.0822
     65 H32        -2.6832   11.8132   -0.4505 H         1 <0>         0.4483
@<TRIPOS>BOND
     1    1    2 1
     2    1   34 1
     3    1   35 1
     4    1   36 1
     5    2    3 2
     6    2   23 1
     7    3    7 1
     8    3    4 1
     9    4    5 2
    10    4   18 1
    11    5    6 1
    12    6    7 am
    13    6    9 1
    14    7    8 2
    15    9   17 1
    16    9   10 2
    17   10   11 1
    18   11   16 ar
    19   11   12 ar
    20   12   13 ar
    21   12   37 1
    22   13   14 ar
    23   13   38 1
    24   14   15 ar
    25   14   39 1
    26   15   16 ar
    27   15   40 1
    28   16   17 1
    29   18   19 1
    30   18   41 1
    31   18   42 1
    32   19   20 2
    33   19   21 1
    34   21   22 1
    35   22   43 1
    36   22   44 1
    37   22   45 1
    38   23   24 1
    39   23   46 1
    40   24   29 1
    41   24   25 1
    42   24   47 1
    43   25   26 1
    44   25   48 1
    45   25   49 1
    46   26   27 1
    47   26   32 1
    48   26   33 1
    49   27   28 1
    50   27   50 1
    51   27   65 1
    52   28   29 1
    53   28   30 1
    54   28   31 1
    55   29   51 1
    56   29   52 1
    57   30   53 1
    58   30   54 1
    59   30   55 1
    60   31   56 1
    61   31   57 1
    62   31   58 1
    63   32   59 1
    64   32   60 1
    65   32   61 1
    66   33   62 1
    67   33   63 1
    68   33   64 1
