@<TRIPOS>MOLECULE
ZINC05930048
   55    59     0     0     0
SMALL
USER_CHARGES

@<TRIPOS>ATOM
      1 C1         -1.1107    1.4009    0.1571 C.3       1 <0>        -0.1307
      2 C2         -0.8582   -0.0843    0.1174 C.ar      1 <0>        -0.0433
      3 C3         -1.5598   -0.9253    0.9623 C.ar      1 <0>        -0.1175
      4 C4         -1.3326   -2.2863    0.9302 C.ar      1 <0>        -0.0745
      5 C5         -0.3944   -2.8127    0.0446 C.ar      1 <0>        -0.1007
      6 C6          0.3094   -1.9608   -0.8043 C.ar      1 <0>        -0.0860
      7 C7          0.0702   -0.6020   -0.7677 C.ar      1 <0>        -0.1153
      8 C8         -0.1454   -4.2752    0.0058 C.2       1 <0>         0.1436
      9 C9          0.1708   -4.9141    1.1475 C.2       1 <0>        -0.1137
     10 C10         0.4182   -6.4103    1.0671 C.3       1 <0>         0.2395
     11 H1          1.4262   -6.6076    1.4321 H         1 <0>         0.1414
     12 N1          0.2868   -7.0171   -0.2597 N.pl3     1 <0>        -0.3940
     13 C11        -0.0464   -6.2110   -1.3323 C.cat     1 <0>         0.5619
     14 N2         -0.2488   -4.9295   -1.1787 N.pl3     1 <0>        -0.5165
     15 N3         -0.0932   -7.0424   -2.4084 N.2       1 <0>        -0.2523
     16 N4          0.1828   -8.2434   -2.0426 N.2       1 <0>         0.1785
     17 N5          0.4202   -8.3062   -0.7767 N.pl3     1 <0>        -0.2113
     18 C12        -0.5545   -7.0969    1.9909 C.ar      1 <0>        -0.1599
     19 C13        -1.8582   -7.3133    1.5829 C.ar      1 <0>        -0.0489
     20 C14        -2.7519   -7.9425    2.4267 C.ar      1 <0>        -0.1175
     21 C15        -2.3403   -8.3584    3.6867 C.ar      1 <0>         0.2993
     22 C16        -1.0303   -8.1396    4.0933 C.ar      1 <0>        -0.0574
     23 C17        -0.1401   -7.5143    3.2422 C.ar      1 <0>        -0.0201
     24 N6         -0.5875   -8.5805    5.4349 N.pl3     1 <0>         0.0289
     25 O1          0.5529   -8.3897    5.7881 O.2       1 <0>        -0.1675
     26 O2         -1.3662   -9.1315    6.1777 O.3       1 <0>        -0.1066
     27 N7         -3.2418   -8.9948    4.5430 N.pl3     1 <0>        -0.6943
     28 C18        -4.1166   -8.3258    5.5169 C.3       1 <0>         0.1395
     29 C19        -4.9120   -9.4263    6.2502 C.3       1 <0>        -0.1279
     30 C20        -4.0312  -10.6870    6.0450 C.3       1 <0>        -0.1288
     31 C21        -3.4784  -10.4482    4.6153 C.3       1 <0>         0.1397
     32 C22         0.2759   -4.1729    2.4555 C.3       1 <0>        -0.1089
     33 H2         -1.9073    1.6528   -0.5430 H         1 <0>         0.0827
     34 H3         -1.4069    1.6923    1.1648 H         1 <0>         0.0761
     35 H4         -0.2005    1.9317   -0.1219 H         1 <0>         0.0760
     36 H5         -2.2864   -0.5162    1.6486 H         1 <0>         0.1376
     37 H6         -1.8806   -2.9420    1.5906 H         1 <0>         0.1326
     38 H7          1.0380   -2.3635   -1.4924 H         1 <0>         0.1290
     39 H8          0.6120    0.0587   -1.4282 H         1 <0>         0.1371
     40 H9          0.6502   -9.1041   -0.2753 H         1 <0>         0.5052
     41 H10        -2.1776   -6.9894    0.6034 H         1 <0>         0.1298
     42 H11        -3.7699   -8.1108    2.1076 H         1 <0>         0.1573
     43 H12         0.8798   -7.3478    3.5560 H         1 <0>         0.1643
     44 H13        -3.5147   -7.7647    6.2318 H         1 <0>         0.0546
     45 H14        -4.8025   -7.6549    4.9996 H         1 <0>         0.0519
     46 H15        -5.0081   -9.1914    7.3102 H         1 <0>         0.0855
     47 H16        -5.8925   -9.5625    5.7939 H         1 <0>         0.0750
     48 H17        -3.2252  -10.7240    6.7779 H         1 <0>         0.0875
     49 H18        -4.6334  -11.5947    6.0825 H         1 <0>         0.0826
     50 H19        -4.2112  -10.7509    3.8673 H         1 <0>         0.0561
     51 H20        -2.5444  -10.9921    4.4744 H         1 <0>         0.0562
     52 H21         0.1561   -3.1041    2.2781 H         1 <0>         0.1039
     53 H22        -0.5050   -4.5186    3.1327 H         1 <0>         0.0893
     54 H23         1.2527   -4.3599    2.9016 H         1 <0>         0.0931
     55 H24        -0.4842   -4.4107   -1.9638 H         1 <0>         0.4579
@<TRIPOS>BOND
     1    1    2 1
     2    1   33 1
     3    1   34 1
     4    1   35 1
     5    2    7 ar
     6    2    3 ar
     7    3    4 ar
     8    3   36 1
     9    4    5 ar
    10    4   37 1
    11    5    6 ar
    12    5    8 1
    13    6    7 ar
    14    6   38 1
    15    7   39 1
    16    8   14 1
    17    8    9 2
    18    9   10 1
    19    9   32 1
    20   10   11 1
    21   10   12 1
    22   10   18 1
    23   12   17 1
    24   12   13 1
    25   13   14 2
    26   13   15 1
    27   14   55 1
    28   15   16 2
    29   16   17 1
    30   17   40 1
    31   18   23 ar
    32   18   19 ar
    33   19   20 ar
    34   19   41 1
    35   20   21 ar
    36   20   42 1
    37   21   22 ar
    38   21   27 1
    39   22   23 ar
    40   22   24 1
    41   23   43 1
    42   24   25 2
    43   24   26 1
    44   27   31 1
    45   27   28 1
    46   28   29 1
    47   28   44 1
    48   28   45 1
    49   29   30 1
    50   29   46 1
    51   29   47 1
    52   30   31 1
    53   30   48 1
    54   30   49 1
    55   31   50 1
    56   31   51 1
    57   32   52 1
    58   32   53 1
    59   32   54 1
