@<TRIPOS>MOLECULE
ZINC49304415
   41    42     0     0     0
SMALL
USER_CHARGES

@<TRIPOS>ATOM
      1 C1         -0.0317    1.5379    0.0188 C.3       1 <0>        -0.1635
      2 C2         -0.0022    0.0082    0.0027 C.3       1 <0>         0.1823
      3 H1          0.5088   -0.3359   -0.8965 H         1 <0>         0.1096
      4 C3          0.7313   -0.4929    1.2201 C.ar      1 <0>        -0.1184
      5 C4          0.0831   -0.5580    2.4396 C.ar      1 <0>        -0.0534
      6 C5          0.7558   -1.0176    3.5561 C.ar      1 <0>        -0.1313
      7 C6          2.0767   -1.4127    3.4533 C.ar      1 <0>        -0.0130
      8 C7          2.7244   -1.3485    2.2341 C.ar      1 <0>        -0.6708
      9 C8          2.0503   -0.8928    1.1163 C.ar      1 <0>        -0.0041
     10 S1          4.4080   -1.8515    2.1033 S.o2      1 <0>         2.7012
     11 O1          4.9453   -1.1813    0.9712 O.2       1 <0>        -0.9596
     12 O2          4.9716   -1.7254    3.4016 O.2       1 <0>        -0.9599
     13 N1          4.4095   -3.4674    1.7415 N.pl3     1 <0>        -1.2494
     14 N2         -1.3736   -0.5068    0.0125 N.am      1 <0>        -0.6939
     15 C9         -2.0530   -0.6365   -1.1443 C.2       1 <0>         0.5155
     16 O3         -1.5286   -0.3266   -2.1940 O.2       1 <0>        -0.5057
     17 C10        -3.4511   -1.1616   -1.1343 C.2       1 <0>         0.5119
     18 O4         -3.9756   -1.4715   -0.0845 O.2       1 <0>        -0.4906
     19 N3         -4.1305   -1.2912   -2.2911 N.am      1 <0>        -0.6418
     20 C11        -5.4014   -1.8718   -2.2936 C.ar      1 <0>         0.1979
     21 C12        -5.8033   -2.6614   -3.3633 C.ar      1 <0>        -0.1850
     22 C13        -7.0619   -3.2355   -3.3634 C.ar      1 <0>         0.1546
     23 C14        -7.9208   -3.0236   -2.2980 C.ar      1 <0>        -0.2011
     24 C15        -7.5224   -2.2364   -1.2306 C.ar      1 <0>         0.1539
     25 C16        -6.2627   -1.6649   -1.2236 C.ar      1 <0>        -0.1681
     26 F1         -8.3628   -2.0307   -0.1930 F         1 <0>        -0.1232
     27 F2         -7.4535   -4.0032   -4.4038 F         1 <0>        -0.1234
     28 H2          0.9887    1.9211    0.0116 H         1 <0>         0.0779
     29 H3         -0.5622    1.9003   -0.8617 H         1 <0>         0.0715
     30 H4         -0.5427    1.8819    0.9181 H         1 <0>         0.0641
     31 H5         -0.9487   -0.2493    2.5198 H         1 <0>         0.1329
     32 H6          0.2497   -1.0677    4.5088 H         1 <0>         0.1404
     33 H7          2.6026   -1.7711    4.3259 H         1 <0>         0.1472
     34 H8          2.5552   -0.8461    0.1628 H         1 <0>         0.1479
     35 H9          3.5700   -3.9434    1.6440 H         1 <0>         0.4170
     36 H10         5.2500   -3.9380    1.6270 H         1 <0>         0.4227
     37 H11        -1.7927   -0.7545    0.8515 H         1 <0>         0.4132
     38 H12        -3.7372   -0.9815   -3.1219 H         1 <0>         0.4303
     39 H13        -5.1339   -2.8266   -4.1946 H         1 <0>         0.1510
     40 H14        -8.9030   -3.4727   -2.2998 H         1 <0>         0.1537
     41 H15        -5.9507   -1.0547   -0.3889 H         1 <0>         0.1596
@<TRIPOS>BOND
     1    1    2 1
     2    1   28 1
     3    1   29 1
     4    1   30 1
     5    2    3 1
     6    2    4 1
     7    2   14 1
     8    4    9 ar
     9    4    5 ar
    10    5    6 ar
    11    5   31 1
    12    6    7 ar
    13    6   32 1
    14    7    8 ar
    15    7   33 1
    16    8    9 ar
    17    8   10 1
    18    9   34 1
    19   10   11 2
    20   10   12 2
    21   10   13 1
    22   13   35 1
    23   13   36 1
    24   14   15 am
    25   14   37 1
    26   15   16 2
    27   15   17 1
    28   17   18 2
    29   17   19 am
    30   19   20 1
    31   19   38 1
    32   20   25 ar
    33   20   21 ar
    34   21   22 ar
    35   21   39 1
    36   22   23 ar
    37   22   27 1
    38   23   24 ar
    39   23   40 1
    40   24   25 ar
    41   24   26 1
    42   25   41 1
