@<TRIPOS>MOLECULE
ZINC39853311
   46    48     0     0     0
SMALL
USER_CHARGES

@<TRIPOS>ATOM
      1 C1         -0.0184    1.5028    0.0103 C.3       1 <0>        -0.0790
      2 C2          0.0021   -0.0041    0.0020 C.2       1 <0>        -0.1086
      3 C3          0.0084   -0.8367   -1.1210 C.2       1 <0>        -0.1638
      4 C4          0.0271   -2.1458   -0.6649 C.2       1 <0>        -0.0016
      5 O1          0.0356   -2.1149    0.6643 O.3       1 <0>        -0.1299
      6 C5          0.0242   -0.8317    1.0933 C.2       1 <0>        -0.0558
      7 C6          0.0308   -0.4000    2.4902 C.2       1 <0>         0.5595
      8 O2          0.0160    0.7941    2.7623 O.co2     1 <0>        -0.6506
      9 O3          0.0512   -1.2325    3.3884 O.co2     1 <0>        -0.6713
     10 C7          0.0324   -3.3347   -1.5917 C.3       1 <0>        -0.0251
     11 C8         -0.4916   -2.9090   -2.9660 C.3       1 <0>        -0.0501
     12 C9          0.2811   -1.6936   -3.4883 C.3       1 <0>        -0.1078
     13 C10         0.0009   -0.5162   -2.5656 C.2       1 <0>         0.2012
     14 N1         -0.2277    0.6803   -3.0126 N.2       1 <0>        -0.2334
     15 N2         -0.2224    0.9257   -4.3919 N.am      1 <0>        -0.5788
     16 C11        -0.4598    2.1685   -4.8562 C.2       1 <0>         0.5740
     17 O4         -0.6787    3.0769   -4.0779 O.2       1 <0>        -0.4808
     18 C12        -0.4542    2.4272   -6.3108 C.ar      1 <0>        -0.1180
     19 C13        -0.2089    1.3849   -7.2073 C.ar      1 <0>        -0.0292
     20 C14        -0.2049    1.6327   -8.5636 C.ar      1 <0>        -0.1135
     21 C15        -0.4437    2.9123   -9.0375 C.ar      1 <0>         0.0332
     22 C16        -0.6876    3.9501   -8.1534 C.ar      1 <0>        -0.0511
     23 C17        -0.6999    3.7136   -6.7948 C.ar      1 <0>         0.0164
     24 N3         -0.9418    5.3144   -8.6680 N.pl3     1 <0>         0.0314
     25 O5         -1.1549    6.2212   -7.8973 O.2       1 <0>        -0.1477
     26 O6         -0.9363    5.5221   -9.8590 O.3       1 <0>        -0.1321
     27 Cl1        -0.4365    3.2165  -10.7467 Cl        1 <0>         0.0041
     28 C18        -0.3288   -4.0700   -3.9490 C.3       1 <0>        -0.1402
     29 C19        -1.9749   -2.5517   -2.8510 C.3       1 <0>        -0.1515
     30 H1          1.0042    1.8801    0.0026 H         1 <0>         0.0564
     31 H2         -0.5455    1.8639   -0.8728 H         1 <0>         0.0656
     32 H3         -0.5286    1.8543    0.9071 H         1 <0>         0.0865
     33 H4          1.0497   -3.7133   -1.6917 H         1 <0>         0.0907
     34 H5         -0.6086   -4.1164   -1.1842 H         1 <0>         0.0906
     35 H6          1.3491   -1.9112   -3.4923 H         1 <0>         0.0974
     36 H7         -0.0495   -1.4548   -4.4992 H         1 <0>         0.0710
     37 H8         -0.0478    0.2011   -5.0128 H         1 <0>         0.3770
     38 H9         -0.0223    0.3870   -6.8390 H         1 <0>         0.1531
     39 H10        -0.0150    0.8275   -9.2579 H         1 <0>         0.1663
     40 H11        -0.8946    4.5227   -6.1064 H         1 <0>         0.1788
     41 H12        -0.8951   -4.9303   -3.5923 H         1 <0>         0.0643
     42 H13        -0.7008   -3.7712   -4.9291 H         1 <0>         0.0588
     43 H14         0.7255   -4.3357   -4.0261 H         1 <0>         0.0607
     44 H15        -2.0973   -1.7320   -2.1431 H         1 <0>         0.0667
     45 H16        -2.3522   -2.2480   -3.8275 H         1 <0>         0.0532
     46 H17        -2.5318   -3.4207   -2.5005 H         1 <0>         0.0630
@<TRIPOS>BOND
     1    1    2 1
     2    1   30 1
     3    1   31 1
     4    1   32 1
     5    2    6 2
     6    2    3 1
     7    3   13 1
     8    3    4 2
     9    4    5 1
    10    4   10 1
    11    5    6 1
    12    6    7 1
    13    7    8 2
    14    7    9 1
    15   10   11 1
    16   10   33 1
    17   10   34 1
    18   11   12 1
    19   11   28 1
    20   11   29 1
    21   12   13 1
    22   12   35 1
    23   12   36 1
    24   13   14 2
    25   14   15 1
    26   15   16 am
    27   15   37 1
    28   16   17 2
    29   16   18 1
    30   18   23 ar
    31   18   19 ar
    32   19   20 ar
    33   19   38 1
    34   20   21 ar
    35   20   39 1
    36   21   22 ar
    37   21   27 1
    38   22   23 ar
    39   22   24 1
    40   23   40 1
    41   24   25 2
    42   24   26 1
    43   28   41 1
    44   28   42 1
    45   28   43 1
    46   29   44 1
    47   29   45 1
    48   29   46 1
