@<TRIPOS>MOLECULE
ZINC16859085
   61    63     0     0     0
SMALL
USER_CHARGES
[(1S)-2-[(3,4-dimethoxyphenyl)amino]-1-methyl-2-oxo-ethyl] 2-[(5R,10S)-10-methyl-2,4-dioxo-1,3-diazaspiro[4.5]decan-3-yl]acetate
@<TRIPOS>ATOM
      1 C1          0.2794    0.9486    2.5692 C.3       1 <0>        -0.1546
      2 C2         -0.4251    1.3197    1.2628 C.3       1 <0>        -0.0844
      3 H1         -0.5587    2.4005    1.2166 H         1 <0>         0.0957
      4 C3          0.4255    0.8597    0.0760 C.3       1 <0>        -0.1127
      5 C4         -0.2894    1.2132   -1.2298 C.3       1 <0>        -0.1258
      6 C5         -1.6444    0.5045   -1.2801 C.3       1 <0>        -0.1171
      7 C6         -2.5029    0.9631   -0.0984 C.3       1 <0>        -0.1155
      8 C7         -1.7875    0.6367    1.2080 C.3       1 <0>         0.1325
      9 C8         -2.6331    1.0499    2.3904 C.2       1 <0>         0.5394
     10 O1         -3.0076    2.1687    2.6697 O.2       1 <0>        -0.4551
     11 N1         -2.8829   -0.0884    3.0701 N.am      1 <0>        -0.5676
     12 C9         -2.3155   -1.1486    2.4817 C.2       1 <0>         0.7087
     13 O2         -2.3998   -2.2837    2.9078 O.2       1 <0>        -0.5354
     14 N2         -1.6407   -0.8161    1.3646 N.am      1 <0>        -0.7095
     15 C10        -3.6764   -0.1559    4.2998 C.3       1 <0>         0.1292
     16 C11        -2.7717    0.0226    5.4918 C.2       1 <0>         0.4537
     17 O3         -1.5859    0.1891    5.3306 O.2       1 <0>        -0.4908
     18 O4         -3.2833   -0.0034    6.7325 O.3       1 <0>        -0.3219
     19 C12        -2.3531    0.1752    7.8329 C.3       1 <0>         0.0745
     20 H2         -1.3751   -0.2130    7.5487 H         1 <0>         0.1164
     21 C13        -2.2343    1.6643    8.1636 C.3       1 <0>        -0.1675
     22 C14        -2.8569   -0.5693    9.0425 C.2       1 <0>         0.5181
     23 O5         -3.8976   -1.1895    8.9828 O.2       1 <0>        -0.4907
     24 N3         -2.1512   -0.5460   10.1904 N.am      1 <0>        -0.6652
     25 C15        -2.6720   -1.1443   11.3452 C.ar      1 <0>         0.1469
     26 C16        -4.0413   -1.1348   11.5746 C.ar      1 <0>        -0.1135
     27 C17        -4.5573   -1.7295   12.7103 C.ar      1 <0>        -0.1517
     28 C18        -3.7082   -2.3265   13.6281 C.ar      1 <0>         0.0897
     29 C19        -2.3348   -2.3327   13.4038 C.ar      1 <0>         0.1198
     30 C20        -1.8185   -1.7416   12.2626 C.ar      1 <0>        -0.1964
     31 O6         -1.5007   -2.9189   14.3038 O.3       1 <0>        -0.3022
     32 C21        -0.1029   -2.8881   14.0085 C.3       1 <0>         0.0247
     33 O7         -4.2171   -2.9064   14.7489 O.3       1 <0>        -0.3059
     34 C22        -5.6358   -2.8630   14.9147 C.3       1 <0>         0.0250
     35 H3          1.2529    1.4375    2.6086 H         1 <0>         0.0659
     36 H4         -0.3261    1.2761    3.4143 H         1 <0>         0.0612
     37 H5          0.4135   -0.1321    2.6154 H         1 <0>         0.0597
     38 H6          0.5715   -0.2192    0.1299 H         1 <0>         0.0653
     39 H7          1.3936    1.3595    0.1072 H         1 <0>         0.0758
     40 H8         -0.4414    2.2913   -1.2801 H         1 <0>         0.0690
     41 H9          0.3193    0.8925   -2.0753 H         1 <0>         0.0703
     42 H10        -2.1495    0.7519   -2.2139 H         1 <0>         0.0761
     43 H11        -1.4933   -0.5734   -1.2231 H         1 <0>         0.0653
     44 H12        -2.6662    2.0388   -0.1640 H         1 <0>         0.0915
     45 H13        -3.4629    0.4477   -0.1252 H         1 <0>         0.0765
     46 H14        -1.1537   -1.4172    0.7795 H         1 <0>         0.4414
     47 H15        -4.4269    0.6344    4.2917 H         1 <0>         0.1432
     48 H16        -4.1704   -1.1256    4.3606 H         1 <0>         0.1458
     49 H17        -1.5360    1.7984    8.9898 H         1 <0>         0.0841
     50 H18        -1.8699    2.2028    7.2888 H         1 <0>         0.0798
     51 H19        -3.2123    2.0526    8.4479 H         1 <0>         0.0782
     52 H20        -1.2826   -0.1150   10.2171 H         1 <0>         0.4123
     53 H21        -4.7043   -0.6657   10.8627 H         1 <0>         0.1401
     54 H22        -5.6230   -1.7246   12.8850 H         1 <0>         0.1413
     55 H23        -0.7529   -1.7451   12.0869 H         1 <0>         0.1398
     56 H24         0.0802   -3.3993   13.0634 H         1 <0>         0.0553
     57 H25         0.2296   -1.8529   13.9320 H         1 <0>         0.0553
     58 H26         0.4478   -3.3887   14.8050 H         1 <0>         0.1027
     59 H27        -5.9081   -3.3594   15.8461 H         1 <0>         0.1016
     60 H28        -5.9664   -1.8248   14.9461 H         1 <0>         0.0556
     61 H29        -6.1151   -3.3717   14.0783 H         1 <0>         0.0560
@<TRIPOS>BOND
     1    1    2 1
     2    1   35 1
     3    1   36 1
     4    1   37 1
     5    2    3 1
     6    2    8 1
     7    2    4 1
     8    4    5 1
     9    4   38 1
    10    4   39 1
    11    5    6 1
    12    5   40 1
    13    5   41 1
    14    6    7 1
    15    6   42 1
    16    6   43 1
    17    7    8 1
    18    7   44 1
    19    7   45 1
    20    8   14 1
    21    8    9 1
    22    9   10 2
    23    9   11 am
    24   11   12 am
    25   11   15 1
    26   12   13 2
    27   12   14 am
    28   14   46 1
    29   15   16 1
    30   15   47 1
    31   15   48 1
    32   16   17 2
    33   16   18 1
    34   18   19 1
    35   19   20 1
    36   19   21 1
    37   19   22 1
    38   21   49 1
    39   21   50 1
    40   21   51 1
    41   22   23 2
    42   22   24 am
    43   24   25 1
    44   24   52 1
    45   25   30 ar
    46   25   26 ar
    47   26   27 ar
    48   26   53 1
    49   27   28 ar
    50   27   54 1
    51   28   29 ar
    52   28   33 1
    53   29   30 ar
    54   29   31 1
    55   30   55 1
    56   31   32 1
    57   32   56 1
    58   32   57 1
    59   32   58 1
    60   33   34 1
    61   34   59 1
    62   34   60 1
    63   34   61 1
