@<TRIPOS>MOLECULE
ZINC06133861
   76    80     0     0     0
SMALL
USER_CHARGES
3-[[4-(2,5-dimethylphenyl)piperazin-1-yl]-(1-tert-butyltetrazol-5-yl)-methyl]-6-ethoxy-1H-quinolin-2-one
@<TRIPOS>ATOM
      1 C1         -3.3218    7.8083   -3.8627 C.3       1 <0>        -0.1560
      2 C2         -3.0867    6.9337   -2.6296 C.3       1 <0>         0.0509
      3 O1         -1.9185    6.1349   -2.8278 O.3       1 <0>        -0.3077
      4 C3         -1.5666    5.2948   -1.8184 C.ar      1 <0>         0.1184
      5 C4         -2.3364    5.2444   -0.6584 C.ar      1 <0>        -0.1241
      6 C5         -2.0015    4.3913    0.3697 C.ar      1 <0>        -0.1171
      7 C6         -0.8752    3.5820    0.2620 C.ar      1 <0>         0.1602
      8 C7         -0.0914    3.6340   -0.9058 C.ar      1 <0>        -0.1101
      9 C8         -0.4483    4.4963   -1.9478 C.ar      1 <0>        -0.0846
     10 C9          1.0885    2.7730   -1.0079 C.2       1 <0>         0.0817
     11 C10         1.3907    1.9612    0.0352 C.2       1 <0>        -0.2766
     12 C11         0.5752    1.9504    1.1869 C.2       1 <0>         0.5550
     13 O2          0.8652    1.2133    2.1134 O.2       1 <0>        -0.5558
     14 N1         -0.5133    2.7329    1.2881 N.am      1 <0>        -0.6114
     15 H1         -1.0688    2.6992    2.1189 H         1 <0>         0.4359
     16 C12         2.6016    1.0668   -0.0357 C.3       1 <0>         0.2057
     17 H2          2.2911    0.0265    0.0615 H         1 <0>         0.1651
     18 C13         3.2939    1.2628   -1.3599 C.2       1 <0>         0.1190
     19 N2          3.9887    2.3099   -1.7323 N.2       1 <0>        -0.2764
     20 N3          4.4183    2.0976   -2.9283 N.2       1 <0>        -0.0492
     21 N4          4.0156    0.9421   -3.3284 N.2       1 <0>        -0.0452
     22 N5          3.3237    0.3939   -2.3875 N.pl3     1 <0>        -0.2641
     23 C14         2.6871   -0.9248   -2.4307 C.3       1 <0>         0.1506
     24 C15         1.1889   -0.7771   -2.1583 C.3       1 <0>        -0.1734
     25 C16         2.8953   -1.5465   -3.8131 C.3       1 <0>        -0.1557
     26 C17         3.3125   -1.8281   -1.3659 C.3       1 <0>        -0.1709
     27 C18         3.8709    2.8342    1.0273 C.3       1 <0>        -0.0130
     28 C19         4.7689    3.1623    2.2224 C.3       1 <0>         0.0366
     29 N6          5.9786    2.3296    2.1661 N.pl3     1 <0>        -0.4887
     30 C20         5.6331    0.9015    2.1936 C.3       1 <0>         0.0342
     31 C21         4.7351    0.5734    0.9985 C.3       1 <0>        -0.0031
     32 C22         6.8570    2.6522    3.2030 C.ar      1 <0>         0.0637
     33 C23         6.4792    2.4483    4.5243 C.ar      1 <0>        -0.1426
     34 C24         7.3503    2.7678    5.5470 C.ar      1 <0>        -0.0778
     35 C25         8.5978    3.2899    5.2571 C.ar      1 <0>        -0.1030
     36 C26         8.9770    3.4941    3.9432 C.ar      1 <0>        -0.1091
     37 C27         8.1124    3.1721    2.9153 C.ar      1 <0>        -0.0519
     38 C28         8.5288    3.3893    1.4833 C.3       1 <0>        -0.1095
     39 C29         6.9414    2.5470    6.9805 C.3       1 <0>        -0.1198
     40 H3         -4.2129    8.4176   -3.7115 H         1 <0>         0.0850
     41 H4         -2.4599    8.4573   -4.0175 H         1 <0>         0.0699
     42 H5         -3.4601    7.1731   -4.7377 H         1 <0>         0.0696
     43 H6         -3.9486    6.2847   -2.4748 H         1 <0>         0.0674
     44 H7         -2.9484    7.5689   -1.7546 H         1 <0>         0.0677
     45 H8         -3.2090    5.8743   -0.5679 H         1 <0>         0.1497
     46 H9         -2.6055    4.3603    1.2644 H         1 <0>         0.1491
     47 H10         0.1472    4.5368   -2.8479 H         1 <0>         0.1502
     48 H11         1.7071    2.7875   -1.8931 H         1 <0>         0.1479
     49 H12         0.7434   -0.1335   -2.9169 H         1 <0>         0.0808
     50 H13         0.7152   -1.7582   -2.1904 H         1 <0>         0.1084
     51 H14         1.0406   -0.3341   -1.1734 H         1 <0>         0.0643
     52 H15         3.9627   -1.6518   -4.0072 H         1 <0>         0.0820
     53 H16         2.4216   -2.5277   -3.8453 H         1 <0>         0.0962
     54 H17         2.4498   -0.9030   -4.5717 H         1 <0>         0.0804
     55 H18         3.0760   -1.4396   -0.3753 H         1 <0>         0.0584
     56 H19         2.9128   -2.8374   -1.4653 H         1 <0>         0.1107
     57 H20         4.3941   -1.8510   -1.4984 H         1 <0>         0.0820
     58 H21         4.3994    3.0627    0.1018 H         1 <0>         0.1659
     59 H22         2.9598    3.4299    1.0827 H         1 <0>         0.1278
     60 H23         4.2306    2.9594    3.1483 H         1 <0>         0.0627
     61 H24         5.0501    4.2148    2.1880 H         1 <0>         0.1265
     62 H25         5.1046    0.6730    3.1191 H         1 <0>         0.0678
     63 H26         6.5441    0.3055    2.1384 H         1 <0>         0.1271
     64 H27         4.4540   -0.4791    1.0329 H         1 <0>         0.1337
     65 H28         5.2734    0.7763    0.0726 H         1 <0>         0.1336
     66 H29         5.5055    2.0400    4.7514 H         1 <0>         0.1170
     67 H30         9.2772    3.5390    6.0588 H         1 <0>         0.1289
     68 H31         9.9518    3.9019    3.7203 H         1 <0>         0.1317
     69 H32         8.2424    4.3931    1.1698 H         1 <0>         0.0716
     70 H33         9.6096    3.2766    1.3982 H         1 <0>         0.0651
     71 H34         8.0357    2.6551    0.8462 H         1 <0>         0.0740
     72 H35         7.2327    1.5436    7.2910 H         1 <0>         0.0743
     73 H36         7.4351    3.2818    7.6165 H         1 <0>         0.0722
     74 H37         5.8606    2.6559    7.0710 H         1 <0>         0.0656
     75 N7          3.5132    1.4009    1.0794 N.4       1 <0>        -0.3868
     76 H38         3.0374    1.2077    1.9685 H         1 <0>         0.4416
@<TRIPOS>BOND
     1    1    2 1
     2    1   40 1
     3    1   41 1
     4    1   42 1
     5    2    3 1
     6    2   43 1
     7    2   44 1
     8    3    4 1
     9    4    9 ar
    10    4    5 ar
    11    5    6 ar
    12    5   45 1
    13    6    7 ar
    14    6   46 1
    15    7   14 1
    16    7    8 ar
    17    8    9 ar
    18    8   10 1
    19    9   47 1
    20   10   11 2
    21   10   48 1
    22   11   12 1
    23   11   16 1
    24   12   13 2
    25   12   14 am
    26   14   15 1
    27   16   17 1
    28   16   18 1
    29   16   75 1
    30   18   22 1
    31   18   19 2
    32   19   20 1
    33   20   21 2
    34   21   22 1
    35   22   23 1
    36   23   24 1
    37   23   25 1
    38   23   26 1
    39   24   49 1
    40   24   50 1
    41   24   51 1
    42   25   52 1
    43   25   53 1
    44   25   54 1
    45   26   55 1
    46   26   56 1
    47   26   57 1
    48   27   28 1
    49   27   58 1
    50   27   59 1
    51   27   75 1
    52   28   29 1
    53   28   60 1
    54   28   61 1
    55   29   30 1
    56   29   32 1
    57   30   31 1
    58   30   62 1
    59   30   63 1
    60   31   64 1
    61   31   65 1
    62   31   75 1
    63   32   37 ar
    64   32   33 ar
    65   33   34 ar
    66   33   66 1
    67   34   35 ar
    68   34   39 1
    69   35   36 ar
    70   35   67 1
    71   36   37 ar
    72   36   68 1
    73   37   38 1
    74   38   69 1
    75   38   70 1
    76   38   71 1
    77   39   72 1
    78   39   73 1
    79   39   74 1
    80   75   76 1
