@<TRIPOS>MOLECULE
ZINC65385229
   54    57     0     0     0
SMALL
USER_CHARGES

@<TRIPOS>ATOM
      1 C1         -0.0187    1.5258    0.0104 C.3       1 <0>        -0.1564
      2 C2          0.0021   -0.0041    0.0020 C.3       1 <0>        -0.0165
      3 C3          0.7421   -0.5109    1.2415 C.3       1 <0>        -0.1546
      4 C4         -1.4117   -0.5257    0.0127 C.2       1 <0>         0.3271
      5 N1         -1.9530   -1.2853   -0.8988 N.2       1 <0>        -0.5471
      6 C5         -3.2212   -1.5602   -0.5736 C.2       1 <0>         0.2235
      7 N2         -3.5034   -0.9755    0.5550 N.2       1 <0>        -0.3094
      8 O1         -2.3265   -0.2938    0.9626 O.3       1 <0>        -0.0751
      9 C6         -4.1690   -2.4081   -1.3822 C.3       1 <0>        -0.0147
     10 C7         -4.0535   -3.8459   -0.9460 C.cat     1 <0>         0.5280
     11 N3         -3.2226   -4.6749   -1.4772 N.pl3     1 <0>        -0.5949
     12 C8         -3.4285   -6.0208   -0.8716 C.3       1 <0>         0.0949
     13 H1         -2.5010   -6.5673   -0.7011 H         1 <0>         0.1727
     14 C9         -4.3919   -6.7496   -1.8174 C.3       1 <0>        -0.1430
     15 C10        -4.3052   -8.2688   -1.6330 C.3       1 <0>        -0.0507
     16 H2         -3.5457   -8.6759   -2.3004 H         1 <0>         0.1181
     17 C11        -3.9230   -8.5612   -0.1801 C.3       1 <0>         0.0964
     18 N4         -4.9234   -7.9818    0.7037 N.am      1 <0>        -0.6917
     19 C12        -5.0605   -6.6933    0.9522 C.2       1 <0>         0.5279
     20 O2         -5.9761   -6.3515    1.6705 O.2       1 <0>        -0.5196
     21 C13        -4.1557   -5.6361    0.4275 C.3       1 <0>         0.0817
     22 H3         -3.4043   -5.3935    1.1790 H         1 <0>         0.1424
     23 N5         -4.8204   -4.3861    0.0564 N.pl3     1 <0>        -0.6370
     24 C14        -5.6406   -8.8936   -1.9448 C.ar      1 <0>        -0.1292
     25 C15        -6.7598   -8.5308   -1.2204 C.ar      1 <0>        -0.0859
     26 C16        -7.9851   -9.1039   -1.5057 C.ar      1 <0>        -0.1523
     27 C17        -8.0940  -10.0412   -2.5166 C.ar      1 <0>        -0.0682
     28 C18        -6.9783  -10.4070   -3.2440 C.ar      1 <0>        -0.2024
     29 C19        -5.7484   -9.8293   -2.9631 C.ar      1 <0>         0.1399
     30 O3         -4.6502  -10.1834   -3.6811 O.3       1 <0>        -0.3179
     31 C20        -4.8355  -11.1528   -4.7145 C.3       1 <0>         0.0246
     32 H4          1.0039    1.9031    0.0027 H         1 <0>         0.0890
     33 H5         -0.5459    1.8868   -0.8726 H         1 <0>         0.0672
     34 H6         -0.5289    1.8773    0.9072 H         1 <0>         0.0712
     35 H7          0.5123   -0.3556   -0.8948 H         1 <0>         0.1263
     36 H8          0.2319   -0.1594    2.1383 H         1 <0>         0.0710
     37 H9          0.7568   -1.6008    1.2356 H         1 <0>         0.0630
     38 H10         1.7647   -0.1336    1.2338 H         1 <0>         0.0892
     39 H11        -5.1905   -2.0617   -1.2253 H         1 <0>         0.1599
     40 H12        -3.9165   -2.3278   -2.4395 H         1 <0>         0.1651
     41 H13        -5.4109   -6.4222   -1.6114 H         1 <0>         0.0867
     42 H14        -4.1386   -6.4997   -2.8477 H         1 <0>         0.1024
     43 H15        -3.8803   -9.6392   -0.0247 H         1 <0>         0.1132
     44 H16        -2.9487   -8.1224    0.0355 H         1 <0>         0.0867
     45 H17        -5.5373   -8.5901    1.1441 H         1 <0>         0.4204
     46 H18        -5.6330   -4.0182    0.4376 H         1 <0>         0.4694
     47 H19        -6.6773   -7.7990   -0.4304 H         1 <0>         0.1270
     48 H20        -8.8586   -8.8195   -0.9378 H         1 <0>         0.1272
     49 H21        -9.0522  -10.4878   -2.7373 H         1 <0>         0.1303
     50 H22        -7.0639  -11.1391   -4.0334 H         1 <0>         0.1335
     51 H23        -5.5524  -10.7744   -5.4433 H         1 <0>         0.0587
     52 H24        -3.8827  -11.3445   -5.2079 H         1 <0>         0.1057
     53 H25        -5.2129  -12.0788   -4.2806 H         1 <0>         0.0601
     54 H26        -2.5690   -4.4581   -2.1604 H         1 <0>         0.4660
@<TRIPOS>BOND
     1    1    2 1
     2    1   32 1
     3    1   33 1
     4    1   34 1
     5    2    3 1
     6    2    4 1
     7    2   35 1
     8    3   36 1
     9    3   37 1
    10    3   38 1
    11    4    8 1
    12    4    5 2
    13    5    6 1
    14    6    7 2
    15    6    9 1
    16    7    8 1
    17    9   10 1
    18    9   39 1
    19    9   40 1
    20   10   23 1
    21   10   11 2
    22   11   12 1
    23   11   54 1
    24   12   13 1
    25   12   21 1
    26   12   14 1
    27   14   15 1
    28   14   41 1
    29   14   42 1
    30   15   16 1
    31   15   17 1
    32   15   24 1
    33   17   18 1
    34   17   43 1
    35   17   44 1
    36   18   19 am
    37   18   45 1
    38   19   20 2
    39   19   21 1
    40   21   22 1
    41   21   23 1
    42   23   46 1
    43   24   29 ar
    44   24   25 ar
    45   25   26 ar
    46   25   47 1
    47   26   27 ar
    48   26   48 1
    49   27   28 ar
    50   27   49 1
    51   28   29 ar
    52   28   50 1
    53   29   30 1
    54   30   31 1
    55   31   51 1
    56   31   52 1
    57   31   53 1
