@<TRIPOS>MOLECULE
ZINC44092254
   37    38     0     0     0
SMALL
USER_CHARGES

@<TRIPOS>ATOM
      1 C1         -0.0184    1.5028    0.0103 C.3       1 <0>        -0.0647
      2 C2          0.0021   -0.0041    0.0020 C.2       1 <0>         0.2266
      3 N1          0.0082   -0.7704   -1.0518 N.2       1 <0>        -0.2780
      4 N2          0.0272   -2.0060   -0.6987 N.2       1 <0>        -0.2718
      5 C3          0.0342   -2.0955    0.6111 C.2       1 <0>         0.1126
      6 N3          0.0236   -0.8203    1.0991 N.pl3     1 <0>        -0.3032
      7 N4          0.0301   -0.4390    2.4108 N.3       1 <0>        -0.5817
      8 S1          0.0593   -3.5801    1.5598 S.3       1 <0>         0.0299
      9 C4          0.0732   -4.8975    0.3128 C.3       1 <0>         0.0146
     10 H1          0.9101   -4.7442   -0.3684 H         1 <0>         0.1520
     11 C5         -1.2379   -4.8676   -0.4752 C.3       1 <0>        -0.1523
     12 C6          0.2189   -6.2333    0.9950 C.2       1 <0>         0.3010
     13 N5          1.0205   -7.1948    0.6293 N.2       1 <0>        -0.5150
     14 C7          0.8942   -8.2379    1.4573 C.2       1 <0>         0.2658
     15 N6          0.0056   -7.9509    2.3647 N.2       1 <0>        -0.3242
     16 O1         -0.4482   -6.6350    2.0842 O.3       1 <0>        -0.0980
     17 C8          1.6558   -9.5343    1.3559 C.3       1 <0>         0.0164
     18 C9          3.1559   -9.2546    1.4681 C.3       1 <0>        -0.1401
     19 C10         1.2251  -10.4688    2.4882 C.3       1 <0>        -0.1452
     20 C11         1.3598  -10.1957    0.0084 C.3       1 <0>        -0.1401
     21 H2          1.0042    1.8801    0.0026 H         1 <0>         0.0919
     22 H3         -0.5455    1.8639   -0.8728 H         1 <0>         0.0974
     23 H4         -0.5286    1.8543    0.9071 H         1 <0>         0.0854
     24 H5         -0.9100   -0.3514    2.7665 H         1 <0>         0.3693
     25 H6          0.5704   -1.0809    2.9712 H         1 <0>         0.3783
     26 H7         -2.0749   -5.0209    0.2061 H         1 <0>         0.0774
     27 H8         -1.3433   -3.9014   -0.9686 H         1 <0>         0.0984
     28 H9         -1.2296   -5.6592   -1.2245 H         1 <0>         0.0839
     29 H10         3.3668   -8.7834    2.4281 H         1 <0>         0.0583
     30 H11         3.7068  -10.1923    1.3948 H         1 <0>         0.0758
     31 H12         3.4627   -8.5889    0.6614 H         1 <0>         0.0710
     32 H13         0.1565  -10.6680    2.4083 H         1 <0>         0.0638
     33 H14         1.7761  -11.4064    2.4149 H         1 <0>         0.0754
     34 H15         1.4361   -9.9976    3.4482 H         1 <0>         0.0637
     35 H16         1.6666   -9.5300   -0.7984 H         1 <0>         0.0712
     36 H17         1.9107  -11.1334   -0.0650 H         1 <0>         0.0757
     37 H18         0.2911  -10.3950   -0.0716 H         1 <0>         0.0584
@<TRIPOS>BOND
     1    1    2 1
     2    1   21 1
     3    1   22 1
     4    1   23 1
     5    2    6 1
     6    2    3 2
     7    3    4 1
     8    4    5 2
     9    5    6 1
    10    5    8 1
    11    6    7 1
    12    7   24 1
    13    7   25 1
    14    8    9 1
    15    9   10 1
    16    9   11 1
    17    9   12 1
    18   11   26 1
    19   11   27 1
    20   11   28 1
    21   12   16 1
    22   12   13 2
    23   13   14 1
    24   14   15 2
    25   14   17 1
    26   15   16 1
    27   17   18 1
    28   17   19 1
    29   17   20 1
    30   18   29 1
    31   18   30 1
    32   18   31 1
    33   19   32 1
    34   19   33 1
    35   19   34 1
    36   20   35 1
    37   20   36 1
    38   20   37 1
