@<TRIPOS>MOLECULE
ZINC39775247
   41    45     0     0     0
SMALL
USER_CHARGES

@<TRIPOS>ATOM
      1 C1          0.0228    1.2874    0.4232 C.ar      1 <0>         0.0072
      2 C2          1.1922    2.0478    0.4172 C.ar      1 <0>         0.0301
      3 C3          2.4199    1.4676    0.3805 C.ar      1 <0>        -0.1475
      4 C4          2.5216   -0.0010    0.3607 C.ar      1 <0>         0.3487
      5 N1          3.5550   -0.8018    0.3524 N.pl3     1 <0>        -0.5183
      6 C5          3.0955   -2.1744    0.4810 C.3       1 <0>         0.3216
      7 H1          3.2849   -2.5419    1.4895 H         1 <0>         0.2150
      8 C6          1.5991   -2.1295    0.2089 C.2       1 <0>        -0.0362
      9 C7          1.2556   -0.7802    0.3191 C.ar      1 <0>         0.0907
     10 C8          0.0425   -0.0909    0.3712 C.ar      1 <0>        -0.1069
     11 N2          0.9183   -3.1850   -0.1852 N.2       1 <0>         0.0420
     12 N3          1.5731   -4.2302   -0.5719 N.2       1 <0>        -0.1834
     13 C9          2.8917   -4.2396   -0.7379 C.cat     1 <0>         0.6076
     14 N4          3.6559   -3.1010   -0.5096 N.pl3     1 <0>        -0.6951
     15 N5          3.5036   -5.3744   -1.1253 N.pl3     1 <0>        -0.3310
     16 N6          4.7676   -5.3700   -1.3828 N.2       1 <0>        -0.3542
     17 C10         5.3560   -6.4706   -1.8633 C.2       1 <0>         0.2190
     18 C11         6.7483   -6.5005   -2.0446 C.ar      1 <0>        -0.0605
     19 C12         7.5156   -5.3317   -1.8436 C.ar      1 <0>        -0.0230
     20 C13         8.8673   -5.3687   -2.0216 C.ar      1 <0>         0.0686
     21 C14         9.4957   -6.5669   -2.4039 C.ar      1 <0>         0.1245
     22 C15         8.7396   -7.7240   -2.6031 C.ar      1 <0>        -0.0496
     23 C16         7.3903   -7.7024   -2.4237 C.ar      1 <0>         0.0796
     24 N7          6.5953   -8.9338   -2.6311 N.pl3     1 <0>        -0.0276
     25 O1          7.2034  -10.0795   -2.8598 O.2       1 <0>        -0.0713
     26 O2          5.2800   -8.8838   -2.5867 O.3       1 <0>        -0.1860
     27 O3         10.8311   -6.3374   -2.5112 O.3       1 <0>        -0.2700
     28 C17        10.9734   -4.9077   -2.5974 C.3       1 <0>         0.2076
     29 O4          9.8224   -4.4021   -1.8956 O.3       1 <0>        -0.2865
     30 H2         -0.9295    1.7944    0.4747 H         1 <0>         0.1900
     31 H3          1.1197    3.1251    0.4419 H         1 <0>         0.1953
     32 H4          3.3115    2.0769    0.3657 H         1 <0>         0.1939
     33 H5         -0.8871   -0.6407    0.3707 H         1 <0>         0.1923
     34 H6          4.7604   -7.3366   -2.1119 H         1 <0>         0.2083
     35 H7          7.0332   -4.4111   -1.5500 H         1 <0>         0.1698
     36 H8          9.2280   -8.6412   -2.8972 H         1 <0>         0.1924
     37 H9         11.8921   -4.5846   -2.1078 H         1 <0>         0.1607
     38 H10        10.9593   -4.5840   -3.6381 H         1 <0>         0.1132
     39 H11         4.4810   -0.5241    0.2731 H         1 <0>         0.4734
     40 H12         4.4896   -2.9260   -0.9735 H         1 <0>         0.4560
     41 H13         2.9941   -6.1953   -1.2107 H         1 <0>         0.4396
@<TRIPOS>BOND
     1    1   10 ar
     2    1    2 ar
     3    1   30 1
     4    2    3 ar
     5    2   31 1
     6    3    4 ar
     7    3   32 1
     8    4    9 ar
     9    4    5 2
    10    5    6 1
    11    5   39 1
    12    6    7 1
    13    6   14 1
    14    6    8 1
    15    8    9 2
    16    8   11 1
    17    9   10 ar
    18   10   33 1
    19   11   12 2
    20   12   13 1
    21   13   14 1
    22   13   15 2
    23   14   40 1
    24   15   16 1
    25   15   41 1
    26   16   17 2
    27   17   18 1
    28   17   34 1
    29   18   23 ar
    30   18   19 ar
    31   19   20 ar
    32   19   35 1
    33   20   29 1
    34   20   21 ar
    35   21   22 ar
    36   21   27 1
    37   22   23 ar
    38   22   36 1
    39   23   24 1
    40   24   25 2
    41   24   26 1
    42   27   28 1
    43   28   29 1
    44   28   37 1
    45   28   38 1
