@<TRIPOS>MOLECULE
ZINC08598546
   63    66     0     0     0
SMALL
USER_CHARGES

@<TRIPOS>ATOM
      1 C1          3.3034    1.6714    2.8140 C.3       1 <0>         0.0260
      2 O1          3.4332    0.2505    2.8934 O.3       1 <0>        -0.3093
      3 C2          2.3643   -0.4897    2.4982 C.ar      1 <0>         0.1865
      4 C3          2.4207   -1.8738    2.5548 C.ar      1 <0>        -0.1906
      5 C4          1.3285   -2.6297    2.1515 C.ar      1 <0>         0.2230
      6 C5          0.1805   -1.9992    1.6918 C.ar      1 <0>        -0.2161
      7 C6          0.1254   -0.6150    1.6357 C.ar      1 <0>         0.1860
      8 C7          1.2151    0.1398    2.0437 C.ar      1 <0>        -0.3114
      9 O2         -0.9982    0.0025    1.1852 O.3       1 <0>        -0.3121
     10 C8         -0.9854    1.4311    1.1543 C.3       1 <0>         0.0263
     11 N1          1.3850   -4.0266    2.2079 N.am      1 <0>        -0.6699
     12 C9          2.0895   -4.6337    3.1834 C.2       1 <0>         0.5213
     13 O3          2.5949   -3.9741    4.0668 O.2       1 <0>        -0.5032
     14 C10         2.2492   -6.1322    3.1765 C.3       1 <0>        -0.1223
     15 H1          2.7506   -6.4405    2.2591 H         1 <0>         0.1087
     16 C11         0.8709   -6.7932    3.2521 C.3       1 <0>        -0.1116
     17 C12         1.0300   -8.3147    3.2121 C.3       1 <0>        -0.1337
     18 C13         1.8516   -8.7702    4.4221 C.3       1 <0>         0.1151
     19 N2          3.1212   -8.0309    4.4371 N.pl3     1 <0>        -0.9960
     20 C14         3.0853   -6.5629    4.3857 C.3       1 <0>         0.1391
     21 S1          4.5661   -8.8368    4.5103 S.o2      1 <0>         2.6916
     22 O4          5.5102   -7.9285    5.0606 O.2       1 <0>        -0.9490
     23 O5          4.2957  -10.1027    5.0965 O.2       1 <0>        -0.9501
     24 C15         5.0738   -9.1478    2.8520 C.ar      1 <0>        -0.7013
     25 C16         4.6876  -10.3110    2.2107 C.ar      1 <0>         0.0093
     26 C17         5.0885  -10.5362    0.9168 C.ar      1 <0>        -0.1828
     27 C18         5.8902   -9.6114    0.2252 C.ar      1 <0>         0.2339
     28 C19         6.2756   -8.4564    0.8707 C.ar      1 <0>        -0.1350
     29 C20         5.8531   -8.2331    2.1819 C.ar      1 <0>         0.0173
     30 C21         7.1349   -7.3859    0.2807 C.3       1 <0>        -0.0848
     31 C22         8.2174   -7.8541   -0.6411 C.3       1 <0>        -0.1232
     32 C23         7.7173   -8.2235   -2.0169 C.3       1 <0>        -0.1386
     33 C24         6.9743   -9.5110   -2.0102 C.2       1 <0>         0.5277
     34 O6          7.1058  -10.2155   -2.9887 O.2       1 <0>        -0.5333
     35 N3          6.1975   -9.9657   -1.0682 N.am      1 <0>        -0.6487
     36 H2          2.4740    1.9961    3.4423 H         1 <0>         0.0565
     37 H3          4.2253    2.1403    3.1583 H         1 <0>         0.1037
     38 H4          3.1121    1.9617    1.7810 H         1 <0>         0.0561
     39 H5          3.3143   -2.3638    2.9122 H         1 <0>         0.1452
     40 H6         -0.6695   -2.5867    1.3775 H         1 <0>         0.1359
     41 H7          1.1700    1.2181    2.0040 H         1 <0>         0.1361
     42 H8         -1.9405    1.7949    0.7755 H         1 <0>         0.1036
     43 H9         -0.8242    1.8149    2.1617 H         1 <0>         0.0568
     44 H10        -0.1818    1.7732    0.5022 H         1 <0>         0.0566
     45 H11         0.9170   -4.5581    1.5450 H         1 <0>         0.4146
     46 H12         0.3798   -6.5037    4.1811 H         1 <0>         0.0773
     47 H13         0.2658   -6.4689    2.4054 H         1 <0>         0.0726
     48 H14         0.0468   -8.7843    3.2423 H         1 <0>         0.0851
     49 H15         1.5432   -8.6029    2.2946 H         1 <0>         0.0720
     50 H16         1.2980   -8.5642    5.3382 H         1 <0>         0.0808
     51 H17         2.0520   -9.8390    4.3464 H         1 <0>         0.0954
     52 H18         4.0991   -6.1753    4.2857 H         1 <0>         0.1007
     53 H19         2.6327   -6.1768    5.2991 H         1 <0>         0.0907
     54 H20         4.0751  -11.0373    2.7243 H         1 <0>         0.1466
     55 H21         4.7813  -11.4443    0.4195 H         1 <0>         0.1380
     56 H22         6.1481   -7.3233    2.6836 H         1 <0>         0.1437
     57 H23         6.4929   -6.6979   -0.2694 H         1 <0>         0.0793
     58 H24         7.5985   -6.8323    1.0972 H         1 <0>         0.0882
     59 H25         8.9588   -7.0613   -0.7403 H         1 <0>         0.0898
     60 H26         8.6996   -8.7260   -0.1991 H         1 <0>         0.0684
     61 H27         7.0572   -7.4349   -2.3779 H         1 <0>         0.1049
     62 H28         8.5684   -8.3087   -2.6926 H         1 <0>         0.1118
     63 H29         5.7119  -10.7564   -1.3511 H         1 <0>         0.4010
@<TRIPOS>BOND
     1    1    2 1
     2    1   36 1
     3    1   37 1
     4    1   38 1
     5    2    3 1
     6    3    8 ar
     7    3    4 ar
     8    4    5 ar
     9    4   39 1
    10    5    6 ar
    11    5   11 1
    12    6    7 ar
    13    6   40 1
    14    7    8 ar
    15    7    9 1
    16    8   41 1
    17    9   10 1
    18   10   42 1
    19   10   43 1
    20   10   44 1
    21   11   12 am
    22   11   45 1
    23   12   13 2
    24   12   14 1
    25   14   15 1
    26   14   20 1
    27   14   16 1
    28   16   17 1
    29   16   46 1
    30   16   47 1
    31   17   18 1
    32   17   48 1
    33   17   49 1
    34   18   19 1
    35   18   50 1
    36   18   51 1
    37   19   20 1
    38   19   21 1
    39   20   52 1
    40   20   53 1
    41   21   22 2
    42   21   23 2
    43   21   24 1
    44   24   29 ar
    45   24   25 ar
    46   25   26 ar
    47   25   54 1
    48   26   27 ar
    49   26   55 1
    50   27   35 1
    51   27   28 ar
    52   28   29 ar
    53   28   30 1
    54   29   56 1
    55   30   31 1
    56   30   57 1
    57   30   58 1
    58   31   32 1
    59   31   59 1
    60   31   60 1
    61   32   33 1
    62   32   61 1
    63   32   62 1
    64   33   34 2
    65   33   35 am
    66   35   63 1
