@<TRIPOS>MOLECULE
ZINC39791643
   61    62     0     0     0
SMALL
USER_CHARGES

@<TRIPOS>ATOM
      1 C1          2.9649    0.5998  -10.1970 C.3       1 <0>        -0.1549
      2 C2          2.8062   -0.9044   -9.9665 C.3       1 <0>        -0.1229
      3 C3          2.2378   -1.1487   -8.5672 C.3       1 <0>        -0.1435
      4 C4          2.1952   -2.6527   -8.2895 C.3       1 <0>         0.0992
      5 N1          1.5471   -2.8926   -6.9977 N.am      1 <0>        -0.6706
      6 C5          2.3628   -3.0453   -5.7895 C.3       1 <0>         0.2644
      7 H1          2.5315   -4.1045   -5.5954 H         1 <0>         0.1536
      8 C6          1.6258   -2.4187   -4.6030 C.3       1 <0>         0.0658
      9 H2          2.0973   -2.7362   -3.6729 H         1 <0>         0.1464
     10 C7          0.1872   -2.8684   -4.6172 C.2       1 <0>         0.4593
     11 O1         -0.4693   -3.0378   -3.4581 O.3       1 <0>        -0.6135
     12 N2         -0.4244   -3.0938   -5.7454 N.2       1 <0>        -0.6511
     13 C8          0.2068   -2.9662   -6.9249 C.2       1 <0>         0.6824
     14 O2         -0.4488   -2.9207   -7.9491 O.2       1 <0>        -0.5454
     15 N3          1.6837   -0.9585   -4.7070 N.am      1 <0>        -0.6078
     16 C9          0.9885   -0.2739   -5.7998 C.3       1 <0>         0.0699
     17 C10        -0.4366    0.0697   -5.3616 C.3       1 <0>        -0.1813
     18 C11         2.3765   -0.2451   -3.7974 C.2       1 <0>         0.5131
     19 O3          3.0265   -0.8151   -2.9468 O.2       1 <0>        -0.5248
     20 C12         2.3437    1.2611   -3.8373 C.3       1 <0>        -0.1440
     21 C13         3.3019    1.8201   -2.7836 C.3       1 <0>        -0.0671
     22 C14         3.1795    3.3215   -2.7396 C.2       1 <0>        -0.1841
     23 C15         2.3666    3.8911   -1.8368 C.2       1 <0>         0.0056
     24 C16         2.2800    5.4052   -1.8349 C.3       1 <0>        -0.0504
     25 H3          2.5699    5.7583   -0.8452 H         1 <0>         0.1671
     26 C17         3.1251    6.1350   -2.8592 C.2       1 <0>         0.5206
     27 O4          3.1151    7.3475   -2.9256 O.2       1 <0>        -0.4208
     28 N4          3.8838    5.4074   -3.6890 N.2       1 <0>        -0.5706
     29 C18         3.9243    4.1037   -3.6424 C.2       1 <0>         0.3213
     30 C19         4.8198    3.3900   -4.6222 C.3       1 <0>        -0.1391
     31 C20         0.8738    5.7811   -2.0545 C.1       1 <0>         0.2073
     32 N5         -0.2113    6.0712   -2.2241 N.1       1 <0>        -0.3813
     33 C21         1.5710    3.0595   -0.8639 C.3       1 <0>        -0.1362
     34 N6          3.6532   -2.3695   -5.9798 N.4       1 <0>        -0.6413
     35 H4          1.9829    1.0728  -10.1979 H         1 <0>         0.0583
     36 H5          3.5734    1.0273   -9.4001 H         1 <0>         0.0516
     37 H6          3.4514    0.7709  -11.1573 H         1 <0>         0.0594
     38 H7          2.1262   -1.3165  -10.7120 H         1 <0>         0.0737
     39 H8          3.7783   -1.3898  -10.0536 H         1 <0>         0.0625
     40 H9          2.8717   -0.6604   -7.8271 H         1 <0>         0.0436
     41 H10         1.2291   -0.7397   -8.5083 H         1 <0>         0.0870
     42 H11         1.6309   -3.1518   -9.0773 H         1 <0>         0.1097
     43 H12         3.2112   -3.0466   -8.2650 H         1 <0>         0.0631
     44 H13         1.5219    0.6426   -6.0521 H         1 <0>         0.0845
     45 H14         0.9530   -0.9257   -6.6727 H         1 <0>         0.1056
     46 H15        -0.9701   -0.8468   -5.1093 H         1 <0>         0.0879
     47 H16        -0.4012    0.7215   -4.4887 H         1 <0>         0.0550
     48 H17        -0.9539    0.5791   -6.1747 H         1 <0>         0.0701
     49 H18         2.6493    1.6051   -4.8254 H         1 <0>         0.0991
     50 H19         1.3317    1.6081   -3.6286 H         1 <0>         0.1073
     51 H20         3.0499    1.4063   -1.8072 H         1 <0>         0.0992
     52 H21         4.3250    1.5464   -3.0412 H         1 <0>         0.0934
     53 H22         4.2624    3.1748   -5.5338 H         1 <0>         0.0980
     54 H23         5.6751    4.0226   -4.8601 H         1 <0>         0.0963
     55 H24         5.1698    2.4566   -4.1813 H         1 <0>         0.0924
     56 H25         2.1213    2.9705    0.0727 H         1 <0>         0.1018
     57 H26         0.6103    3.5392   -0.6767 H         1 <0>         0.0819
     58 H27         1.4060    2.0674   -1.2841 H         1 <0>         0.0924
     59 H28         3.4963   -1.3888   -6.1575 H         1 <0>         0.4253
     60 H29         4.2141   -2.4751   -5.1477 H         1 <0>         0.4433
     61 H30         4.1356   -2.7806   -6.7649 H         1 <0>         0.4322
@<TRIPOS>BOND
     1    1    2 1
     2    1   35 1
     3    1   36 1
     4    1   37 1
     5    2    3 1
     6    2   38 1
     7    2   39 1
     8    3    4 1
     9    3   40 1
    10    3   41 1
    11    4    5 1
    12    4   42 1
    13    4   43 1
    14    5   13 am
    15    5    6 1
    16    6    7 1
    17    6    8 1
    18    6   34 1
    19    8    9 1
    20    8   10 1
    21    8   15 1
    22   10   11 1
    23   10   12 2
    24   12   13 1
    25   13   14 2
    26   15   16 1
    27   15   18 am
    28   16   17 1
    29   16   44 1
    30   16   45 1
    31   17   46 1
    32   17   47 1
    33   17   48 1
    34   18   19 2
    35   18   20 1
    36   20   21 1
    37   20   49 1
    38   20   50 1
    39   21   22 1
    40   21   51 1
    41   21   52 1
    42   22   29 1
    43   22   23 2
    44   23   24 1
    45   23   33 1
    46   24   25 1
    47   24   26 1
    48   24   31 1
    49   26   27 2
    50   26   28 1
    51   28   29 2
    52   29   30 1
    53   30   53 1
    54   30   54 1
    55   30   55 1
    56   31   32 3
    57   33   56 1
    58   33   57 1
    59   33   58 1
    60   34   59 1
    61   34   60 1
    62   34   61 1
