@<TRIPOS>MOLECULE
ZINC06537237
   41    44     0     0     0
SMALL
USER_CHARGES
[3-cyano-3-(1,3-dihydrobenzimidazol-2-ylidene)-2-oxo-propyl] 7-methyl-[1,2,4]triazolo[1,5-a]pyrimidine-2-carboxylate
@<TRIPOS>ATOM
      1 C1         -1.2860   -0.7862    0.0096 C.3       1 <0>        -0.1268
      2 C2          0.0021   -0.0041    0.0020 C.2       1 <0>         0.2027
      3 C3         -0.0163    1.3525    0.0095 C.2       1 <0>        -0.2188
      4 C4          1.1970    2.0546    0.0017 C.2       1 <0>         0.2170
      5 N1          2.3383    1.4066   -0.0123 N.2       1 <0>        -0.4507
      6 C5          2.3685    0.0670   -0.0202 C.2       1 <0>         0.4468
      7 N2          1.2016   -0.6486   -0.0129 N.pl3     1 <0>        -0.3239
      8 N3          1.5635   -2.0020   -0.0236 N.2       1 <0>        -0.2572
      9 C6          2.8829   -2.0468   -0.0364 C.2       1 <0>         0.2567
     10 N4          3.3676   -0.8029   -0.0344 N.2       1 <0>        -0.4734
     11 C7          3.6973   -3.2828   -0.0504 C.2       1 <0>         0.5669
     12 O1          3.1533   -4.3685   -0.0506 O.2       1 <0>        -0.4658
     13 O2          5.0418   -3.2033   -0.0628 O.3       1 <0>        -0.3033
     14 C8          5.7761   -4.4558   -0.0761 C.3       1 <0>         0.0275
     15 C9          7.2558   -4.1705   -0.0887 C.2       1 <0>         0.4398
     16 O3          7.6533   -3.0217   -0.0868 O.2       1 <0>        -0.5016
     17 C10         8.1759   -5.2323   -0.1028 C.2       1 <0>        -0.3636
     18 C11         9.5569   -4.9660   -0.1146 C.2       1 <0>         0.5193
     19 N5         10.1195   -3.7298   -0.1197 N.pl3     1 <0>        -0.5898
     20 C12        11.5015   -3.8798   -0.1286 C.ar      1 <0>         0.0916
     21 C13        12.5532   -2.9739   -0.1353 C.ar      1 <0>        -0.0955
     22 C14        13.8552   -3.4321   -0.1508 C.ar      1 <0>        -0.1004
     23 C15        14.1173   -4.7919   -0.1594 C.ar      1 <0>        -0.1016
     24 C16        13.0789   -5.7013   -0.1533 C.ar      1 <0>        -0.0984
     25 C17        11.7659   -5.2512   -0.1376 C.ar      1 <0>         0.0880
     26 N6         10.5387   -5.9043   -0.1287 N.pl3     1 <0>        -0.6128
     27 C18         7.7076   -6.5855   -0.1051 C.1       1 <0>         0.2728
     28 N7          7.3361   -7.6591   -0.1069 N.1       1 <0>        -0.4486
     29 H1         -2.1376   -0.0900    0.0215 H         1 <0>         0.1024
     30 H2         -1.3219   -1.4248    0.9045 H         1 <0>         0.0963
     31 H3         -1.3387   -1.4146   -0.8917 H         1 <0>         0.0963
     32 H4         -0.9555    1.8857    0.0168 H         1 <0>         0.1799
     33 H5          1.1926    3.1346    0.0071 H         1 <0>         0.1975
     34 H6          5.5227   -5.0389    0.8216 H         1 <0>         0.1084
     35 H7          5.5057   -5.0299   -0.9746 H         1 <0>         0.1084
     36 H8          9.4803   -2.8346   -0.1165 H         1 <0>         0.4851
     37 H9         12.3532   -1.9127   -0.1279 H         1 <0>         0.1391
     38 H10        14.6732   -2.7269   -0.1560 H         1 <0>         0.1404
     39 H11        15.1387   -5.1425   -0.1712 H         1 <0>         0.1398
     40 H12        13.2876   -6.7609   -0.1600 H         1 <0>         0.1361
     41 H13        10.2781   -6.9730   -0.1313 H         1 <0>         0.4735
@<TRIPOS>BOND
     1    1    2 1
     2    1   29 1
     3    1   30 1
     4    1   31 1
     5    2    7 1
     6    2    3 2
     7    3    4 1
     8    3   32 1
     9    4    5 2
    10    4   33 1
    11    5    6 1
    12    6   10 2
    13    6    7 1
    14    7    8 1
    15    8    9 2
    16    9   10 1
    17    9   11 1
    18   11   12 2
    19   11   13 1
    20   13   14 1
    21   14   15 1
    22   14   34 1
    23   14   35 1
    24   15   16 2
    25   15   17 1
    26   17   18 2
    27   17   27 1
    28   18   26 1
    29   18   19 1
    30   19   20 1
    31   19   36 1
    32   20   25 ar
    33   20   21 ar
    34   21   22 ar
    35   21   37 1
    36   22   23 ar
    37   22   38 1
    38   23   24 ar
    39   23   39 1
    40   24   25 ar
    41   24   40 1
    42   25   26 1
    43   26   41 1
    44   27   28 3
