@<TRIPOS>MOLECULE
ZINC62099690
   40    42     0     0     0
SMALL
USER_CHARGES

@<TRIPOS>ATOM
      1 C1          0.1235    1.6117   -0.0600 C.ar      1 <0>        -0.1263
      2 C2          1.3581    2.2454   -0.0175 C.ar      1 <0>         0.2076
      3 C3          2.5239    1.4913   -0.0107 C.ar      1 <0>        -0.1485
      4 C4          2.4536    0.1127   -0.0477 C.ar      1 <0>        -0.1315
      5 C5          1.2191   -0.5201   -0.0913 C.ar      1 <0>         0.0900
      6 C6          0.0546    0.2320   -0.0951 C.ar      1 <0>        -0.1352
      7 C7         -1.2919   -0.4457   -0.1330 C.3       1 <0>         0.0922
      8 O1         -1.1248   -1.8085   -0.5354 O.3       1 <0>        -0.3768
      9 C8         -0.0915   -2.4848    0.1907 C.3       1 <0>         0.2239
     10 O2          1.1638   -1.8794   -0.1322 O.3       1 <0>        -0.3499
     11 C9          3.7189   -0.7057   -0.0413 C.3       1 <0>         0.0501
     12 N1          3.9578   -1.2485   -1.3853 N.4       1 <0>        -0.3779
     13 C10         5.0159   -2.2420   -1.2974 C.3       1 <0>        -0.0048
     14 C11         5.1376   -3.0272   -2.6064 C.3       1 <0>        -0.1619
     15 C12         6.0218   -2.2402   -3.5529 C.2       1 <0>         0.5052
     16 O3          7.1292   -2.6486   -3.8318 O.2       1 <0>        -0.5047
     17 N2          5.5776   -1.0954   -4.0795 N.am      1 <0>        -0.7299
     18 C13         4.2298   -0.6036   -3.7439 C.3       1 <0>         0.0919
     19 C14         4.2313   -0.1403   -2.2857 C.3       1 <0>        -0.0410
     20 N3          1.4275    3.6426    0.0180 N.pl3     1 <0>        -0.8691
     21 H1         -0.7839    2.1974   -0.0613 H         1 <0>         0.1398
     22 H2          3.4851    1.9827    0.0232 H         1 <0>         0.1393
     23 H3         -1.7443   -0.4119    0.8581 H         1 <0>         0.0843
     24 H4         -1.9375    0.0675   -0.8457 H         1 <0>         0.1240
     25 H5         -0.2773   -2.3946    1.2610 H         1 <0>         0.0710
     26 H6         -0.0738   -3.5371   -0.0928 H         1 <0>         0.1499
     27 H7          4.5584   -0.0745    0.2501 H         1 <0>         0.1370
     28 H8          3.6174   -1.5261    0.6691 H         1 <0>         0.1425
     29 H9          5.9616   -1.7410   -1.0908 H         1 <0>         0.1332
     30 H10         4.7922   -2.9328   -0.4845 H         1 <0>         0.1491
     31 H11         5.5852   -4.0015   -2.4101 H         1 <0>         0.1454
     32 H12         4.1503   -3.1583   -3.0493 H         1 <0>         0.1126
     33 H13         6.1427   -0.5877   -4.6827 H         1 <0>         0.4182
     34 H14         3.9729    0.2331   -4.3935 H         1 <0>         0.1343
     35 H15         3.5044   -1.4069   -3.8721 H         1 <0>         0.0969
     36 H16         3.4672    0.6256   -2.1528 H         1 <0>         0.1470
     37 H17         5.2066    0.2832   -2.0459 H         1 <0>         0.1358
     38 H18         0.6127    4.1689    0.0129 H         1 <0>         0.4074
     39 H19         2.2903    4.0848    0.0477 H         1 <0>         0.4050
     40 H20         3.1157   -1.7101   -1.6950 H         1 <0>         0.4240
@<TRIPOS>BOND
     1    1    6 ar
     2    1    2 ar
     3    1   21 1
     4    2    3 ar
     5    2   20 1
     6    3    4 ar
     7    3   22 1
     8    4    5 ar
     9    4   11 1
    10    5   10 1
    11    5    6 ar
    12    6    7 1
    13    7    8 1
    14    7   23 1
    15    7   24 1
    16    8    9 1
    17    9   10 1
    18    9   25 1
    19    9   26 1
    20   11   12 1
    21   11   27 1
    22   11   28 1
    23   12   19 1
    24   12   13 1
    25   12   40 1
    26   13   14 1
    27   13   29 1
    28   13   30 1
    29   14   15 1
    30   14   31 1
    31   14   32 1
    32   15   16 2
    33   15   17 am
    34   17   18 1
    35   17   33 1
    36   18   19 1
    37   18   34 1
    38   18   35 1
    39   19   36 1
    40   19   37 1
    41   20   38 1
    42   20   39 1
