@<TRIPOS>MOLECULE
ZINC64414403
   49    51     0     0     0
SMALL
USER_CHARGES

@<TRIPOS>ATOM
      1 C1         -0.1387    0.8001    0.2481 C.3       1 <0>        -0.6737
      2 S1          0.3046    2.3755   -0.5341 S.o2      1 <0>         2.6090
      3 O1         -0.8662    3.0505   -0.9732 O.2       1 <0>        -0.9513
      4 O2          1.2811    3.0517    0.2460 O.2       1 <0>        -0.9515
      5 N1          1.0953    1.9518   -1.9262 N.pl3     1 <0>        -0.9997
      6 C2          2.5517    1.7551   -1.9289 C.3       1 <0>         0.1038
      7 C3          2.8560    0.3545   -2.4748 C.3       1 <0>         0.0908
      8 N2          2.1137    0.1680   -3.7294 N.am      1 <0>        -0.6096
      9 C4          0.6573    0.3648   -3.7267 C.3       1 <0>         0.0970
     10 C5          0.3523    1.7599   -3.1796 C.3       1 <0>         0.1063
     11 C6          2.7572   -0.1768   -4.8624 C.2       1 <0>         0.5759
     12 O3          2.1227   -0.4221   -5.8724 O.2       1 <0>        -0.5735
     13 C7          4.1694   -0.2538   -4.8781 C.2       1 <0>        -0.3442
     14 C8          4.8193   -0.4861   -6.0371 C.2       1 <0>         0.2503
     15 C9          6.3274   -0.6740   -6.0801 C.3       1 <0>        -0.0468
     16 S2          6.6199   -0.8310   -7.8934 S.3       1 <0>        -0.2710
     17 C10         4.9445   -0.2815   -8.4364 C.3       1 <0>         0.4280
     18 H1          4.9361    0.7821   -8.6747 H         1 <0>         0.1352
     19 N3          4.1608   -0.5681   -7.2120 N.pl3     1 <0>        -0.7128
     20 N4          4.4658   -1.0787   -9.5684 N.am      1 <0>        -0.7137
     21 C11         4.9524   -0.8535  -10.8049 C.2       1 <0>         0.5795
     22 O4          5.7884    0.0111  -10.9809 O.2       1 <0>        -0.5088
     23 C12         4.4692   -1.6582  -11.9474 C.2       1 <0>        -0.2539
     24 C13         4.9652   -1.4329  -13.1911 C.2       1 <0>         0.0523
     25 C14         4.4292   -2.2910  -14.3196 C.3       1 <0>        -0.2024
     26 C15         3.3854   -3.3274  -13.9644 C.2       1 <0>         0.5024
     27 O5          2.9159   -4.0472  -14.8222 O.2       1 <0>        -0.4361
     28 N5          2.9874   -3.4400  -12.6919 N.2       1 <0>        -0.5660
     29 C16         3.4641   -2.6968  -11.7327 C.2       1 <0>         0.3029
     30 H2         -0.7810    0.2294   -0.4226 H         1 <0>         0.1272
     31 H3          0.7669    0.2302    0.4563 H         1 <0>         0.1273
     32 H4         -0.6684    0.9939    1.1808 H         1 <0>         0.1297
     33 H5          3.0210    2.5056   -2.5650 H         1 <0>         0.0826
     34 H6          2.9345    1.8426   -0.9121 H         1 <0>         0.1051
     35 H7          3.9252    0.2603   -2.6648 H         1 <0>         0.1057
     36 H8          2.5432   -0.3967   -1.7496 H         1 <0>         0.0743
     37 H9          0.2745    0.2773   -4.7435 H         1 <0>         0.1067
     38 H10         0.1880   -0.3857   -3.0906 H         1 <0>         0.0701
     39 H11        -0.7170    1.8505   -2.9885 H         1 <0>         0.1043
     40 H12         0.6614    2.5107   -3.9067 H         1 <0>         0.0804
     41 H13         6.8423    0.1968   -5.6743 H         1 <0>         0.1290
     42 H14         4.7274   -0.1267   -3.9622 H         1 <0>         0.1449
     43 H15         6.6241   -1.5821   -5.5554 H         1 <0>         0.1343
     44 H16         3.2200   -0.8006   -7.2517 H         1 <0>         0.4328
     45 H17         3.7986   -1.7687   -9.4280 H         1 <0>         0.4091
     46 H18         5.7113   -0.6726  -13.3691 H         1 <0>         0.1693
     47 H19         4.0006   -1.6274  -15.0706 H         1 <0>         0.1413
     48 H20         5.2727   -2.8080  -14.7771 H         1 <0>         0.1412
     49 H21         3.0941   -2.8534  -10.7302 H         1 <0>         0.1663
@<TRIPOS>BOND
     1    1    2 1
     2    1   30 1
     3    1   31 1
     4    1   32 1
     5    2    3 2
     6    2    4 2
     7    2    5 1
     8    5   10 1
     9    5    6 1
    10    6    7 1
    11    6   33 1
    12    6   34 1
    13    7    8 1
    14    7   35 1
    15    7   36 1
    16    8    9 1
    17    8   11 am
    18    9   10 1
    19    9   37 1
    20    9   38 1
    21   10   39 1
    22   10   40 1
    23   11   12 2
    24   11   13 1
    25   13   42 1
    26   13   14 2
    27   14   15 1
    28   14   19 1
    29   15   16 1
    30   15   43 1
    31   15   41 1
    32   16   17 1
    33   17   18 1
    34   17   20 1
    35   17   19 1
    36   19   44 1
    37   20   21 am
    38   20   45 1
    39   21   22 2
    40   21   23 1
    41   23   29 1
    42   23   24 2
    43   24   25 1
    44   24   46 1
    45   25   26 1
    46   25   47 1
    47   25   48 1
    48   26   27 2
    49   26   28 1
    50   28   29 2
    51   29   49 1
