@<TRIPOS>MOLECULE
ZINC39482567
   57    60     0     0     0
SMALL
USER_CHARGES

@<TRIPOS>ATOM
      1 C1          5.3965   -3.4867   -2.6858 C.ar      1 <0>        -0.0794
      2 C2          4.1335   -3.7095   -2.1692 C.ar      1 <0>        -0.0824
      3 C3          3.5691   -2.7939   -1.3023 C.ar      1 <0>        -0.1358
      4 C4          4.2709   -1.6502   -0.9499 C.ar      1 <0>         0.0262
      5 C5          5.5382   -1.4291   -1.4693 C.ar      1 <0>        -0.0786
      6 C6          6.0979   -2.3476   -2.3362 C.ar      1 <0>        -0.0940
      7 O1          3.7176   -0.7477   -0.0977 O.3       1 <0>        -0.6475
      8 S1          4.0384   -1.0030    1.3681 S.o2      1 <0>         2.5901
      9 O2          5.4111   -1.3703    1.3802 O.2       1 <0>        -0.8834
     10 O3          3.5950    0.1650    2.0451 O.2       1 <0>        -0.8839
     11 C7          3.0077   -2.4224    1.8304 C.3       1 <0>        -0.5626
     12 H1          3.2995   -3.2910    1.2401 H         1 <0>         0.1944
     13 C8          3.1988   -2.7290    3.3195 C.3       1 <0>         0.1376
     14 N1          2.2595   -3.7952    3.7003 N.pl3     1 <0>        -0.6502
     15 C9          0.8437   -3.6352    3.3341 C.3       1 <0>         0.1188
     16 C10         0.7638   -3.2858    1.8444 C.3       1 <0>        -0.0327
     17 N2          1.5968   -2.1073    1.5735 N.4       1 <0>        -0.4739
     18 C11         2.7006   -4.9304    4.3913 C.ar      1 <0>         0.0918
     19 C12         2.7070   -4.9399    5.7755 C.ar      1 <0>        -0.0754
     20 C13         3.1468   -6.0719    6.4601 C.ar      1 <0>        -0.0692
     21 C14         3.5788   -7.1905    5.7497 C.ar      1 <0>        -0.0548
     22 C15         3.5715   -7.1785    4.3695 C.ar      1 <0>        -0.1645
     23 C16         3.1288   -6.0555    3.6852 C.ar      1 <0>         0.2046
     24 N3          3.1169   -6.0491    2.2858 N.pl3     1 <0>        -1.0770
     25 S2          2.7640   -7.4371    1.4544 S.o2      1 <0>         2.7598
     26 O4          2.9487   -7.1420    0.0420 O.2       1 <0>        -1.0736
     27 O5          3.6903   -8.4566    1.9221 O.2       1 <0>        -1.0617
     28 O6          1.3832   -7.7749    1.7630 O.3       1 <0>        -1.0665
     29 C17         3.1555   -6.0856    7.9431 C.ar      1 <0>        -0.0665
     30 C18         3.7356   -5.0340    8.6492 C.ar      1 <0>        -0.0944
     31 C19         3.7407   -5.0512   10.0292 C.ar      1 <0>        -0.1287
     32 C20         3.1720   -6.1100   10.7150 C.ar      1 <0>        -0.1036
     33 C21         2.5943   -7.1585   10.0244 C.ar      1 <0>        -0.1439
     34 C22         2.5766   -7.1511    8.6389 C.ar      1 <0>         0.1187
     35 O7          2.0041   -8.1786    7.9589 O.3       1 <0>        -0.4911
     36 H2          5.8377   -4.2057   -3.3601 H         1 <0>         0.1467
     37 H3          3.5876   -4.6000   -2.4439 H         1 <0>         0.1556
     38 H4          2.5823   -2.9680   -0.8996 H         1 <0>         0.1249
     39 H5          6.0863   -0.5394   -1.1968 H         1 <0>         0.1461
     40 H6          7.0845   -2.1759   -2.7408 H         1 <0>         0.1483
     41 H7          4.2216   -3.0615    3.4967 H         1 <0>         0.1313
     42 H8          2.9946   -1.8339    3.9069 H         1 <0>         0.0994
     43 H9          0.3095   -4.5668    3.5210 H         1 <0>         0.1289
     44 H10         0.4016   -2.8316    3.9230 H         1 <0>         0.0852
     45 H11         1.1233   -4.1283    1.2536 H         1 <0>         0.1401
     46 H12        -0.2704   -3.0691    1.5768 H         1 <0>         0.1532
     47 H13         1.3084   -1.3484    2.1727 H         1 <0>         0.4350
     48 H14         2.3721   -4.0720    6.3241 H         1 <0>         0.1252
     49 H15         3.9200   -8.0675    6.2797 H         1 <0>         0.1247
     50 H16         3.9070   -8.0464    3.8212 H         1 <0>         0.1732
     51 H17         3.3152   -5.2316    1.8028 H         1 <0>         0.3885
     52 H18         4.1810   -4.2064    8.1172 H         1 <0>         0.1256
     53 H19         4.1906   -4.2356   10.5758 H         1 <0>         0.1257
     54 H20         3.1798   -6.1172   11.7950 H         1 <0>         0.1266
     55 H21         2.1526   -7.9825   10.5651 H         1 <0>         0.1304
     56 H22         2.6123   -8.9019    7.7539 H         1 <0>         0.3913
     57 H23         1.4851   -1.8323    0.6092 H         1 <0>         0.4271
@<TRIPOS>BOND
     1    1    6 ar
     2    1    2 ar
     3    1   36 1
     4    2    3 ar
     5    2   37 1
     6    3    4 ar
     7    3   38 1
     8    4    5 ar
     9    4    7 1
    10    5    6 ar
    11    5   39 1
    12    6   40 1
    13    7    8 1
    14    8    9 2
    15    8   10 2
    16    8   11 1
    17   11   12 1
    18   11   17 1
    19   11   13 1
    20   13   14 1
    21   13   41 1
    22   13   42 1
    23   14   15 1
    24   14   18 1
    25   15   16 1
    26   15   43 1
    27   15   44 1
    28   16   17 1
    29   16   45 1
    30   16   46 1
    31   17   47 1
    32   17   57 1
    33   18   23 ar
    34   18   19 ar
    35   19   20 ar
    36   19   48 1
    37   20   21 ar
    38   20   29 1
    39   21   22 ar
    40   21   49 1
    41   22   23 ar
    42   22   50 1
    43   23   24 1
    44   24   25 1
    45   24   51 1
    46   25   26 2
    47   25   27 2
    48   25   28 1
    49   29   34 ar
    50   29   30 ar
    51   30   31 ar
    52   30   52 1
    53   31   32 ar
    54   31   53 1
    55   32   33 ar
    56   32   54 1
    57   33   34 ar
    58   33   55 1
    59   34   35 1
    60   35   56 1
