@<TRIPOS>MOLECULE
ZINC63302937
   56    59     0     0     0
SMALL
USER_CHARGES

@<TRIPOS>ATOM
      1 C1         -0.0184    1.5028    0.0103 C.3       1 <0>        -0.1285
      2 C2          0.0021   -0.0041    0.0020 C.2       1 <0>         0.0265
      3 C3          0.0061   -0.6954   -1.1674 C.2       1 <0>        -0.2479
      4 C4          0.0259   -2.1051   -1.1488 C.2       1 <0>         0.5082
      5 O1          0.0297   -2.7124   -2.2045 O.2       1 <0>        -0.4454
      6 O2          0.0411   -2.7950    0.0025 O.3       1 <0>        -0.2722
      7 C5          0.0380   -2.1693    1.1991 C.ar      1 <0>         0.2016
      8 C6          0.0243   -0.7629    1.2543 C.ar      1 <0>        -0.1816
      9 C7          0.0261   -0.1105    2.4922 C.ar      1 <0>        -0.0103
     10 C8          0.0465   -0.8421    3.6444 C.ar      1 <0>        -0.1525
     11 C9          0.0655   -2.2344    3.5961 C.ar      1 <0>         0.1920
     12 C10         0.0533   -2.8969    2.3791 C.ar      1 <0>        -0.2275
     13 O3          0.0862   -2.9478    4.7507 O.3       1 <0>        -0.3045
     14 C11         0.1050   -4.3719    4.6332 C.3       1 <0>         0.0843
     15 C12         0.1263   -4.9891    6.0078 C.2       1 <0>        -0.1217
     16 C13         0.1254   -4.2225    7.0701 C.2       1 <0>        -0.1877
     17 C14         0.1486   -6.4882    6.1604 C.3       1 <0>        -0.1234
     18 C15         0.0490   -0.1392    4.9775 C.3       1 <0>        -0.0527
     19 C16         1.4887    0.0070    5.4742 C.3       1 <0>        -0.1301
     20 C17         1.4912    0.7099    6.8073 C.2       1 <0>         0.5318
     21 O4          0.4445    1.0594    7.3105 O.2       1 <0>        -0.4784
     22 N1          2.6566    0.9500    7.4403 N.am      1 <0>        -0.7294
     23 C18         2.6590    1.6333    8.7362 C.3       1 <0>         0.4759
     24 N2          2.2793    0.6960    9.8008 N.pl3     1 <0>        -0.4749
     25 C19         3.2782    0.6240   10.6323 C.ar      1 <0>         0.3346
     26 C20         3.4927   -0.1336   11.8729 C.ar      1 <0>        -0.1362
     27 C21         4.6581   -0.0046   12.5380 C.ar      1 <0>         0.0318
     28 C22         5.6958    0.8340   12.0935 C.ar      1 <0>         0.0550
     29 C23         5.6026    1.5724   10.9695 C.ar      1 <0>        -0.1481
     30 C24         4.3764    1.5119   10.1621 C.ar      1 <0>         0.3459
     31 N3          4.0139    2.0986    9.0581 N.pl3     1 <0>        -0.4897
     32 H1          1.0042    1.8801    0.0026 H         1 <0>         0.0910
     33 H2         -0.5455    1.8639   -0.8728 H         1 <0>         0.0892
     34 H3         -0.5286    1.8543    0.9071 H         1 <0>         0.0787
     35 H4         -0.0061   -0.1665   -2.1090 H         1 <0>         0.1685
     36 H5          0.0118    0.9686    2.5359 H         1 <0>         0.1486
     37 H6          0.0678   -3.9764    2.3498 H         1 <0>         0.1535
     38 H7         -0.7854   -4.7042    4.0995 H         1 <0>         0.0865
     39 H8          0.9943   -4.6793    4.0830 H         1 <0>         0.0843
     40 H9          0.1407   -4.6649    8.0553 H         1 <0>         0.1008
     41 H10         0.1094   -3.1482    6.9608 H         1 <0>         0.0996
     42 H11         1.0399   -6.8893    5.6778 H         1 <0>         0.0735
     43 H12         0.1620   -6.7455    7.2195 H         1 <0>         0.0729
     44 H13        -0.7398   -6.9141    5.6942 H         1 <0>         0.0762
     45 H14        -0.3998    0.8481    4.8685 H         1 <0>         0.0898
     46 H15        -0.5260   -0.7224    5.6967 H         1 <0>         0.0922
     47 H16         1.9375   -0.9803    5.5832 H         1 <0>         0.1195
     48 H17         2.0638    0.5902    4.7550 H         1 <0>         0.1206
     49 H18         3.4937    0.6705    7.0378 H         1 <0>         0.4370
     50 H19         1.9688    2.4767    8.7154 H         1 <0>         0.2467
     51 H20         2.7218   -0.7898   12.2493 H         1 <0>         0.2086
     52 H21         4.8008   -0.5679   13.4483 H         1 <0>         0.2069
     53 H22         6.6036    0.8890   12.6761 H         1 <0>         0.2077
     54 H23         6.4237    2.2042   10.6645 H         1 <0>         0.2096
     55 H24         1.4381    0.2183    9.8717 H         1 <0>         0.4945
     56 H25         4.5422    2.7278    8.5423 H         1 <0>         0.4982
@<TRIPOS>BOND
     1    1    2 1
     2    1   32 1
     3    1   33 1
     4    1   34 1
     5    2    8 1
     6    2    3 2
     7    3    4 1
     8    3   35 1
     9    4    5 2
    10    4    6 1
    11    6    7 1
    12    7   12 ar
    13    7    8 ar
    14    8    9 ar
    15    9   10 ar
    16    9   36 1
    17   10   11 ar
    18   10   18 1
    19   11   12 ar
    20   11   13 1
    21   12   37 1
    22   13   14 1
    23   14   15 1
    24   14   38 1
    25   14   39 1
    26   15   16 2
    27   15   17 1
    28   16   40 1
    29   16   41 1
    30   17   42 1
    31   17   43 1
    32   17   44 1
    33   18   19 1
    34   18   45 1
    35   18   46 1
    36   19   20 1
    37   19   47 1
    38   19   48 1
    39   20   21 2
    40   20   22 am
    41   22   23 1
    42   22   49 1
    43   23   31 1
    44   23   24 1
    45   23   50 1
    46   24   25 2
    47   24   55 1
    48   25   30 ar
    49   25   26 ar
    50   26   27 ar
    51   26   51 1
    52   27   28 ar
    53   27   52 1
    54   28   29 ar
    55   28   53 1
    56   29   30 ar
    57   29   54 1
    58   30   31 2
    59   31   56 1
