@<TRIPOS>MOLECULE
ZINC36993241
   31    33     0     0     0
SMALL
USER_CHARGES

@<TRIPOS>ATOM
      1 C1         -0.0167    1.3787    0.0096 C.ar      1 <0>        -0.0611
      2 C2          1.1747    2.0855    0.0020 C.ar      1 <0>         0.0460
      3 C3          2.3913    1.4054   -0.0136 C.ar      1 <0>         0.1377
      4 C4          2.4093    0.0219   -0.0206 C.ar      1 <0>        -0.1799
      5 C5          1.2138   -0.6847   -0.0129 C.ar      1 <0>         0.2411
      6 C6          0.0021   -0.0041    0.0020 C.ar      1 <0>        -0.1054
      7 Cl1        -1.4901   -0.8911    0.0118 Cl        1 <0>        -0.0569
      8 N1          1.2292   -2.0841   -0.0202 N.pl3     1 <0>        -0.7290
      9 C7          2.5058   -2.8025   -0.0360 C.3       1 <0>         0.1437
     10 H1          3.2222   -2.2267   -0.6219 H         1 <0>         0.0937
     11 C8          2.2971   -4.1571   -0.7116 C.3       1 <0>        -0.1359
     12 C9          3.3150   -5.1956   -0.1629 C.3       1 <0>        -0.0612
     13 S1          3.3099   -4.7185    1.6212 S.3       1 <0>        -0.2966
     14 C10         3.0273   -2.9147    1.4099 C.3       1 <0>        -0.0844
     15 O1          3.5529    2.1129   -0.0232 O.3       1 <0>        -0.2983
     16 C11         3.5368    3.3665   -0.7109 C.3       1 <0>         0.0511
     17 C12         2.3097    4.1466   -0.3131 C.2       1 <0>         0.4900
     18 O2          2.3416    5.3589   -0.2842 O.2       1 <0>        -0.5095
     19 N2          1.1743    3.4901    0.0105 N.am      1 <0>        -0.6555
     20 H2         -0.9587    1.9067    0.0259 H         1 <0>         0.1455
     21 H3          3.3507   -0.5072   -0.0325 H         1 <0>         0.1482
     22 H4          0.3946   -2.5783   -0.0147 H         1 <0>         0.4083
     23 H5          1.2836   -4.5063   -0.5138 H         1 <0>         0.0861
     24 H6          2.4365   -4.0489   -1.7872 H         1 <0>         0.0921
     25 H7          2.9566   -6.2154   -0.3025 H         1 <0>         0.1144
     26 H8          4.3007   -5.0591   -0.6078 H         1 <0>         0.0972
     27 H9          3.9613   -2.3648    1.5258 H         1 <0>         0.0991
     28 H10         2.2791   -2.5576    2.1176 H         1 <0>         0.1096
     29 H11         4.4290    3.9353   -0.4492 H         1 <0>         0.1493
     30 H12         3.5219    3.1902   -1.7864 H         1 <0>         0.1035
     31 H13         0.3712    3.9810    0.2450 H         1 <0>         0.4172
@<TRIPOS>BOND
     1    1    6 ar
     2    1    2 ar
     3    1   20 1
     4    2   19 1
     5    2    3 ar
     6    3    4 ar
     7    3   15 1
     8    4    5 ar
     9    4   21 1
    10    5    6 ar
    11    5    8 1
    12    6    7 1
    13    8    9 1
    14    8   22 1
    15    9   10 1
    16    9   14 1
    17    9   11 1
    18   11   12 1
    19   11   23 1
    20   11   24 1
    21   12   13 1
    22   12   25 1
    23   12   26 1
    24   13   14 1
    25   14   27 1
    26   14   28 1
    27   15   16 1
    28   16   17 1
    29   16   29 1
    30   16   30 1
    31   17   18 2
    32   17   19 am
    33   19   31 1
