@<TRIPOS>MOLECULE
ZINC19927023
   59    62     0     0     0
SMALL
USER_CHARGES
3-(4-amino-1,2,5-oxadiazol-3-yl)-N-[(4-dimethylaminophenyl)methyleneamino]-5-(1-piperidylmethyl)triazole-4-carboxamide
@<TRIPOS>ATOM
      1 C1        -10.0757   10.4437    2.6678 C.3       1 <0>         0.0788
      2 N1         -9.3230   10.0960    1.4600 N.pl3     1 <0>        -0.6271
      3 C2         -9.8781   10.3985    0.1385 C.3       1 <0>         0.0788
      4 C3         -8.0778    9.4771    1.5683 C.ar      1 <0>         0.2478
      5 C4         -7.4977    9.2999    2.8201 C.ar      1 <0>        -0.2097
      6 C5         -6.2681    8.6891    2.9309 C.ar      1 <0>        -0.0254
      7 C6         -5.6033    8.2471    1.7836 C.ar      1 <0>        -0.1449
      8 C7         -6.1870    8.4316    0.5270 C.ar      1 <0>        -0.0157
      9 C8         -7.4190    9.0389    0.4244 C.ar      1 <0>        -0.2123
     10 C9         -4.2873    7.5935    1.8980 C.2       1 <0>         0.1625
     11 N2         -3.6712    7.1835    0.8313 N.2       1 <0>        -0.2534
     12 N3         -2.4202    6.5622    0.9400 N.am      1 <0>        -0.5696
     13 C10        -1.7806    6.1366   -0.1673 C.2       1 <0>         0.5978
     14 O1         -2.2451    6.3727   -1.2668 O.2       1 <0>        -0.4665
     15 C11        -0.5208    5.3867   -0.0467 C.2       1 <0>         0.0140
     16 C12         0.7500    5.8996   -0.0189 C.2       1 <0>        -0.0337
     17 N4          1.5737    4.8572    0.0952 N.2       1 <0>        -0.1985
     18 N5          0.8879    3.7715    0.1418 N.2       1 <0>        -0.0209
     19 N6         -0.3715    4.0259    0.0645 N.pl3     1 <0>        -0.1937
     20 C13        -1.4043    3.0835    0.0841 C.2       1 <0>         0.2485
     21 C14        -1.2368    1.6273    0.0921 C.2       1 <0>         0.3680
     22 N7         -2.4202    1.0785    0.1162 N.2       1 <0>        -0.3281
     23 O2         -3.3813    2.1194    0.1194 O.3       1 <0>         0.0784
     24 N8         -2.6798    3.3500    0.0951 N.2       1 <0>        -0.2307
     25 N9         -0.0242    0.9473    0.0818 N.pl3     1 <0>        -0.8264
     26 C15         1.1393    7.3529   -0.1060 C.3       1 <0>         0.0902
     27 N10         1.3309    7.7249   -1.5142 N.4       1 <0>        -0.4020
     28 C16         2.4779    7.0150   -2.0947 C.3       1 <0>        -0.0071
     29 C17         2.5590    7.3137   -3.5934 C.3       1 <0>        -0.1466
     30 C18         2.7111    8.8232   -3.8006 C.3       1 <0>        -0.1395
     31 C19         1.5288    9.5420   -3.1449 C.3       1 <0>        -0.1473
     32 C20         1.4775    9.1788   -1.6592 C.3       1 <0>        -0.0035
     33 H1         -9.5026   10.1413    3.5567 H         1 <0>         0.0824
     34 H2        -11.0434    9.9207    2.6600 H         1 <0>         0.0619
     35 H3        -10.2462   11.5301    2.6935 H         1 <0>         0.0612
     36 H4         -9.1748   10.0663   -0.6394 H         1 <0>         0.0820
     37 H5        -10.0395   11.4828    0.0481 H         1 <0>         0.0615
     38 H6        -10.8367    9.8735    0.0146 H         1 <0>         0.0615
     39 H7         -8.0118    9.6420    3.7061 H         1 <0>         0.1328
     40 H8         -5.8181    8.5522    3.9031 H         1 <0>         0.1290
     41 H9         -5.6742    8.0954   -0.3620 H         1 <0>         0.1325
     42 H10        -7.8725    9.1782   -0.5459 H         1 <0>         0.1307
     43 H11        -3.8271    7.4531    2.8872 H         1 <0>         0.1245
     44 H12        -1.9600    6.4217    1.9292 H         1 <0>         0.4039
     45 H13        -0.0103   -0.1526    0.0892 H         1 <0>         0.4558
     46 H14         0.9213    1.5092    0.0662 H         1 <0>         0.4513
     47 H15         0.3430    7.9727    0.3319 H         1 <0>         0.1503
     48 H16         2.0763    7.5153    0.4469 H         1 <0>         0.1619
     49 H17         3.4034    7.3504   -1.6038 H         1 <0>         0.1338
     50 H18         2.3541    5.9325   -1.9432 H         1 <0>         0.1263
     51 H19         3.4270    6.7934   -4.0245 H         1 <0>         0.1141
     52 H20         1.6400    6.9648   -4.0871 H         1 <0>         0.0869
     53 H21         3.6511    9.1634   -3.3416 H         1 <0>         0.0832
     54 H22         2.7275    9.0457   -4.8777 H         1 <0>         0.0954
     55 H23         1.6544   10.6293   -3.2542 H         1 <0>         0.1157
     56 H24         0.5936    9.2301   -3.6329 H         1 <0>         0.0899
     57 H25         0.6203    9.6825   -1.1885 H         1 <0>         0.1328
     58 H26         2.4077    9.5041   -1.1704 H         1 <0>         0.1323
     59 H27         0.4321    7.4215   -2.0710 H         1 <0>         0.4443
@<TRIPOS>BOND
     1    1    2 1
     2    1   33 1
     3    1   34 1
     4    1   35 1
     5    2    3 1
     6    2    4 1
     7    3   36 1
     8    3   37 1
     9    3   38 1
    10    4    9 ar
    11    4    5 ar
    12    5    6 ar
    13    5   39 1
    14    6    7 ar
    15    6   40 1
    16    7    8 ar
    17    7   10 1
    18    8    9 ar
    19    8   41 1
    20    9   42 1
    21   10   11 2
    22   10   43 1
    23   11   12 1
    24   12   13 am
    25   12   44 1
    26   13   14 2
    27   13   15 1
    28   15   19 1
    29   15   16 2
    30   16   17 1
    31   16   26 1
    32   17   18 2
    33   18   19 1
    34   19   20 1
    35   20   24 2
    36   20   21 1
    37   21   22 2
    38   21   25 1
    39   22   23 1
    40   23   24 1
    41   25   45 1
    42   25   46 1
    43   26   27 1
    44   26   47 1
    45   26   48 1
    46   27   32 1
    47   27   28 1
    48   27   59 1
    49   28   29 1
    50   28   49 1
    51   28   50 1
    52   29   30 1
    53   29   51 1
    54   29   52 1
    55   30   31 1
    56   30   53 1
    57   30   54 1
    58   31   32 1
    59   31   55 1
    60   31   56 1
    61   32   57 1
    62   32   58 1
