@<TRIPOS>MOLECULE
ZINC31483035
   42    44     0     0     0
SMALL
USER_CHARGES
N-(4-fluoro-3-nitro-phenyl)-4-[[(1S,2S)-2-methylcyclopropanecarbonyl]amino]benzamide
@<TRIPOS>ATOM
      1 C1          0.4516    1.8044    1.2841 C.3       1 <0>        -0.1500
      2 C2         -1.0108    1.4227    1.0462 C.3       1 <0>        -0.1562
      3 H1         -0.8841    0.4268    1.4957 H         1 <0>         0.1337
      4 C3         -2.0573    2.5336    1.1539 C.3       1 <0>        -0.1266
      5 C4         -1.6853    1.9623   -0.2166 C.3       1 <0>        -0.1398
      6 H2         -1.3385    2.3811   -1.1728 H         1 <0>         0.1398
      7 C5         -2.6953    1.0760   -0.8989 C.2       1 <0>         0.5151
      8 O1         -2.9461   -0.0198   -0.4436 O.2       1 <0>        -0.5177
      9 N1         -3.3198    1.5010   -2.0150 N.am      1 <0>        -0.6886
     10 C6         -4.1732    0.6419   -2.7065 C.ar      1 <0>         0.1912
     11 C7         -3.9030   -0.7224   -2.7447 C.ar      1 <0>        -0.1349
     12 C8         -4.7466   -1.5740   -3.4217 C.ar      1 <0>        -0.0596
     13 C9         -5.8689   -1.0652   -4.0812 C.ar      1 <0>        -0.1621
     14 C10        -6.1341    0.3066   -4.0456 C.ar      1 <0>        -0.0294
     15 C11        -5.2898    1.1518   -3.3616 C.ar      1 <0>        -0.1559
     16 C12        -6.7714   -1.9742   -4.8138 C.2       1 <0>         0.5667
     17 O2         -7.7472   -1.5299   -5.3875 O.2       1 <0>        -0.5137
     18 N2         -6.5142   -3.2967   -4.8472 N.am      1 <0>        -0.6825
     19 C13        -7.3073   -4.1444   -5.6289 C.ar      1 <0>         0.1516
     20 C14        -7.5486   -5.4482   -5.2154 C.ar      1 <0>        -0.0680
     21 C15        -8.3358   -6.2812   -5.9857 C.ar      1 <0>        -0.1310
     22 C16        -8.8754   -5.8210   -7.1752 C.ar      1 <0>         0.1520
     23 C17        -8.6314   -4.5234   -7.5921 C.ar      1 <0>        -0.0617
     24 C18        -7.8493   -3.6850   -6.8218 C.ar      1 <0>        -0.0410
     25 N3         -9.2094   -4.0342   -8.8640 N.pl3     1 <0>         0.0279
     26 O3         -8.9954   -2.8927   -9.2309 O.2       1 <0>        -0.1471
     27 O4         -9.8991   -4.7731   -9.5435 O.3       1 <0>        -0.1426
     28 F1         -9.6414   -6.6391   -7.9297 F         1 <0>        -0.1012
     29 H3          0.8015    1.3488    2.2222 H         1 <0>         0.0639
     30 H4          0.5383    2.8988    1.3533 H         1 <0>         0.0515
     31 H5          1.0663    1.4400    0.4479 H         1 <0>         0.0608
     32 H6         -2.8958    2.1883    1.7766 H         1 <0>         0.1087
     33 H7         -1.6017    3.4233    1.6131 H         1 <0>         0.1128
     34 H8         -3.1563    2.5256   -2.3805 H         1 <0>         0.4410
     35 H9         -3.0330   -1.1143   -2.2388 H         1 <0>         0.1418
     36 H10        -4.5389   -2.6336   -3.4469 H         1 <0>         0.1287
     37 H11        -7.0007    0.7030   -4.5539 H         1 <0>         0.1433
     38 H12        -5.4942    2.2119   -3.3337 H         1 <0>         0.1374
     39 H13        -5.6809   -3.7099   -4.2600 H         1 <0>         0.4426
     40 H14        -7.1246   -5.8088   -4.2899 H         1 <0>         0.1582
     41 H15        -8.5273   -7.2937   -5.6623 H         1 <0>         0.1666
     42 H16        -7.6592   -2.6729   -7.1474 H         1 <0>         0.1740
@<TRIPOS>BOND
     1    1    2 1
     2    1   29 1
     3    1   30 1
     4    1   31 1
     5    2    3 1
     6    2    5 1
     7    2    4 1
     8    4    5 1
     9    4   32 1
    10    4   33 1
    11    5    6 1
    12    5    7 1
    13    7    8 2
    14    7    9 am
    15    9   10 1
    16    9   34 1
    17   10   15 ar
    18   10   11 ar
    19   11   12 ar
    20   11   35 1
    21   12   13 ar
    22   12   36 1
    23   13   14 ar
    24   13   16 1
    25   14   15 ar
    26   14   37 1
    27   15   38 1
    28   16   17 2
    29   16   18 am
    30   18   19 1
    31   18   39 1
    32   19   24 ar
    33   19   20 ar
    34   20   21 ar
    35   20   40 1
    36   21   22 ar
    37   21   41 1
    38   22   23 ar
    39   22   28 1
    40   23   24 ar
    41   23   25 1
    42   24   42 1
    43   25   26 2
    44   25   27 1
