@<TRIPOS>MOLECULE
ZINC35378729
   61    64     0     0     0
SMALL
USER_CHARGES

@<TRIPOS>ATOM
      1 C1         -0.0475    1.5181    0.0156 C.3       1 <0>        -0.1826
      2 C2         -0.0391    0.0111    0.0104 C.ar      1 <0>         0.0393
      3 C3         -0.0396   -0.6743   -1.1912 C.ar      1 <0>        -0.1489
      4 C4         -0.0322   -2.0589   -1.1938 C.ar      1 <0>         0.1592
      5 C5         -0.0246   -2.7581    0.0125 C.ar      1 <0>         0.0487
      6 C6         -0.0224   -2.0656    1.2103 C.ar      1 <0>        -0.0030
      7 C7         -0.0252   -0.6820    1.2063 C.ar      1 <0>        -0.6794
      8 S1         -0.0167    0.1999    2.7317 S.o2      1 <0>         2.6973
      9 O1         -1.0482    1.1733    2.6437 O.2       1 <0>        -0.9462
     10 O2          0.0244   -0.7753    3.7645 O.2       1 <0>        -0.9491
     11 N1          1.4133    1.0313    2.8087 N.pl3     1 <0>        -0.9958
     12 C8          2.6058    0.4158    3.4069 C.3       1 <0>         0.1130
     13 C9          3.1527    1.3509    4.4901 C.3       1 <0>        -0.1300
     14 C10         3.3958    2.7363    3.8871 C.3       1 <0>        -0.1111
     15 C11         2.0730    3.3112    3.3756 C.3       1 <0>        -0.1199
     16 H1          1.3601    3.3711    4.1979 H         1 <0>         0.1100
     17 C12         1.5154    2.3963    2.2747 C.3       1 <0>         0.1288
     18 C13         2.3078    4.6891    2.8121 C.2       1 <0>         0.5230
     19 O3          2.0510    4.9207    1.6494 O.2       1 <0>        -0.5236
     20 N2          2.8030    5.6640    3.6000 N.am      1 <0>        -0.6578
     21 C14         3.1096    6.9194    3.0538 C.ar      1 <0>         0.0764
     22 C15         2.3326    7.4392    2.0292 C.ar      1 <0>        -0.0422
     23 C16         2.6344    8.6756    1.4912 C.ar      1 <0>        -0.2259
     24 C17         3.7147    9.3998    1.9743 C.ar      1 <0>         0.1559
     25 C18         4.4948    8.8841    2.9983 C.ar      1 <0>        -0.2272
     26 C19         4.1910    7.6476    3.5439 C.ar      1 <0>         0.1453
     27 O4          4.9510    7.1429    4.5521 O.3       1 <0>        -0.3136
     28 C20         6.0440    7.9446    5.0044 C.3       1 <0>         0.0263
     29 O5          4.0092   10.6161    1.4428 O.3       1 <0>        -0.3163
     30 C21         3.1642   11.0861    0.3906 C.3       1 <0>         0.0262
     31 O6         -0.0208   -4.1179   -0.0025 O.3       1 <0>        -0.2959
     32 C22        -0.7154   -4.7507   -1.0804 C.3       1 <0>         0.0479
     33 C23        -0.3418   -4.0883   -2.3821 C.2       1 <0>         0.4920
     34 O7         -0.3193   -4.7334   -3.4091 O.2       1 <0>        -0.4972
     35 N3         -0.0327   -2.7734   -2.4003 N.am      1 <0>        -0.6622
     36 H2          0.9781    1.8872    0.0083 H         1 <0>         0.0965
     37 H3         -0.5708    1.8815   -0.8688 H         1 <0>         0.0905
     38 H4         -0.5559    1.8755    0.9111 H         1 <0>         0.1075
     39 H5         -0.0461   -0.1310   -2.1245 H         1 <0>         0.1451
     40 H6         -0.0162   -2.6040    2.1465 H         1 <0>         0.1613
     41 H7          2.3381   -0.5423    3.8524 H         1 <0>         0.0992
     42 H8          3.3636    0.2646    2.6381 H         1 <0>         0.0749
     43 H9          2.4296    1.4292    5.3020 H         1 <0>         0.0748
     44 H10         4.0911    0.9520    4.8752 H         1 <0>         0.0854
     45 H11         3.8081    3.3970    4.6498 H         1 <0>         0.0754
     46 H12         4.1001    2.6536    3.0593 H         1 <0>         0.0744
     47 H13         2.1860    2.4033    1.4154 H         1 <0>         0.0867
     48 H14         0.5279    2.7453    1.9729 H         1 <0>         0.1086
     49 H15         2.9475    5.4976    4.5446 H         1 <0>         0.4139
     50 H16         1.4913    6.8771    1.6513 H         1 <0>         0.1516
     51 H17         2.0287    9.0788    0.6932 H         1 <0>         0.1344
     52 H18         5.3358    9.4483    3.3735 H         1 <0>         0.1411
     53 H19         6.7327    8.1197    4.1779 H         1 <0>         0.0587
     54 H20         5.6670    8.8992    5.3715 H         1 <0>         0.0590
     55 H21         6.5661    7.4266    5.8089 H         1 <0>         0.1033
     56 H22         3.1993   10.3856   -0.4438 H         1 <0>         0.0581
     57 H23         2.1401   11.1659    0.7552 H         1 <0>         0.0582
     58 H24         3.5088   12.0652    0.0578 H         1 <0>         0.1018
     59 H25        -0.4425   -5.8053   -1.1185 H         1 <0>         0.1524
     60 H26        -1.7901   -4.6601   -0.9225 H         1 <0>         0.1053
     61 H27         0.1854   -2.3303   -3.2351 H         1 <0>         0.4205
@<TRIPOS>BOND
     1    1    2 1
     2    1   36 1
     3    1   37 1
     4    1   38 1
     5    2    7 ar
     6    2    3 ar
     7    3    4 ar
     8    3   39 1
     9    4   35 1
    10    4    5 ar
    11    5    6 ar
    12    5   31 1
    13    6    7 ar
    14    6   40 1
    15    7    8 1
    16    8    9 2
    17    8   10 2
    18    8   11 1
    19   11   17 1
    20   11   12 1
    21   12   13 1
    22   12   41 1
    23   12   42 1
    24   13   14 1
    25   13   43 1
    26   13   44 1
    27   14   15 1
    28   14   45 1
    29   14   46 1
    30   15   16 1
    31   15   17 1
    32   15   18 1
    33   17   47 1
    34   17   48 1
    35   18   19 2
    36   18   20 am
    37   20   21 1
    38   20   49 1
    39   21   26 ar
    40   21   22 ar
    41   22   23 ar
    42   22   50 1
    43   23   24 ar
    44   23   51 1
    45   24   25 ar
    46   24   29 1
    47   25   26 ar
    48   25   52 1
    49   26   27 1
    50   27   28 1
    51   28   53 1
    52   28   54 1
    53   28   55 1
    54   29   30 1
    55   30   56 1
    56   30   57 1
    57   30   58 1
    58   31   32 1
    59   32   33 1
    60   32   59 1
    61   32   60 1
    62   33   34 2
    63   33   35 am
    64   35   61 1
