@<TRIPOS>MOLECULE
ZINC50440489
   24    24     0     0     0
SMALL
USER_CHARGES

@<TRIPOS>ATOM
      1 C1         -0.0167    1.3784    0.0096 C.ar      1 <0>        -0.0288
      2 C2          1.1704    2.0873    0.0021 C.ar      1 <0>        -0.0107
      3 C3          2.3791    1.4164   -0.0135 C.ar      1 <0>        -0.0289
      4 C4          2.4040    0.0340   -0.0215 C.ar      1 <0>        -0.0388
      5 C5          1.2140   -0.6802   -0.0136 C.ar      1 <0>         0.1421
      6 C6          0.0021   -0.0041    0.0020 C.ar      1 <0>        -0.0399
      7 Cl1        -1.4889   -0.8933    0.0120 Cl        1 <0>        -0.0027
      8 O1          1.2355   -2.0395   -0.0219 O.3       1 <0>        -0.3090
      9 C7          1.2588   -2.6958    1.2473 C.3       1 <0>         0.0519
     10 C8          1.2803   -4.1884    1.0406 C.cat     1 <0>         0.5537
     11 N1          1.8742   -4.9697    1.9261 N.pl3     1 <0>        -0.7462
     12 N2          0.7054   -4.7163   -0.0260 N.pl3     1 <0>        -0.7336
     13 Cl2         3.9223   -0.8076   -0.0422 Cl        1 <0>        -0.0007
     14 N3          1.1470    3.5673    0.0102 N.pl3     1 <0>         0.0228
     15 O2          0.0906    4.1551    0.0234 O.2       1 <0>        -0.1244
     16 O3          2.1843    4.1882    0.0036 O.3       1 <0>        -0.1243
     17 H1         -0.9594    1.9051    0.0259 H         1 <0>         0.1843
     18 H2          3.3048    1.9726   -0.0197 H         1 <0>         0.1842
     19 H3          2.1498   -2.3922    1.7969 H         1 <0>         0.1301
     20 H4          0.3701   -2.4204    1.8151 H         1 <0>         0.1388
     21 H5          2.2961   -4.5823    2.7089 H         1 <0>         0.4506
     22 H6          0.2696   -4.1429   -0.6758 H         1 <0>         0.4541
     23 H7          0.7192   -5.6770   -0.1590 H         1 <0>         0.4357
     24 H8          1.8880   -5.9304    1.7931 H         1 <0>         0.4398
@<TRIPOS>BOND
     1    1    6 ar
     2    1    2 ar
     3    1   17 1
     4    2    3 ar
     5    2   14 1
     6    3    4 ar
     7    3   18 1
     8    4    5 ar
     9    4   13 1
    10    5    6 ar
    11    5    8 1
    12    6    7 1
    13    8    9 1
    14    9   10 1
    15    9   19 1
    16    9   20 1
    17   10   11 2
    18   10   12 1
    19   11   21 1
    20   11   24 1
    21   12   22 1
    22   12   23 1
    23   14   15 2
    24   14   16 1
