@<TRIPOS>MOLECULE
ZINC65512478
   63    65     0     0     0
SMALL
USER_CHARGES

@<TRIPOS>ATOM
      1 C1         -0.5348    1.3908   -0.6448 C.3       1 <0>         0.0789
      2 N1         -0.3884   -0.0369   -0.3508 N.pl3     1 <0>        -1.0053
      3 C2         -0.2519   -0.4889    1.0361 C.3       1 <0>         0.0894
      4 S1         -0.3771   -1.1398   -1.5860 S.o2      1 <0>         2.6944
      5 O1         -0.7829   -2.3811   -1.0259 O.2       1 <0>        -0.9460
      6 O2         -1.0605   -0.5360   -2.6758 O.2       1 <0>        -0.9500
      7 C3          1.2992   -1.3392   -2.0911 C.ar      1 <0>        -0.6916
      8 C4          1.8233   -0.5256   -3.0787 C.ar      1 <0>         0.0097
      9 C5          3.1378   -0.6775   -3.4791 C.ar      1 <0>        -0.2047
     10 C6          3.9338   -1.6469   -2.8909 C.ar      1 <0>         0.1553
     11 C7          3.4065   -2.4667   -1.8960 C.ar      1 <0>         0.1068
     12 C8          2.0885   -2.3045   -1.4952 C.ar      1 <0>        -0.0015
     13 N2          4.2070   -3.4495   -1.2977 N.am      1 <0>        -0.6667
     14 C9          3.6338   -4.4935   -0.6669 C.2       1 <0>         0.7006
     15 O3          2.4271   -4.6384   -0.7043 O.2       1 <0>        -0.5437
     16 N3          4.3981   -5.3768    0.0055 N.am      1 <0>        -0.7637
     17 C10         3.7750   -6.5116    0.6913 C.3       1 <0>         0.1066
     18 C11         4.8636   -7.4367    1.2391 C.3       1 <0>         0.0316
     19 H1          5.5408   -6.8649    1.8736 H         1 <0>         0.1512
     20 C12         4.2174   -8.5544    2.0600 C.3       1 <0>        -0.1479
     21 H2          4.9707   -9.2572    2.4160 H         1 <0>         0.1197
     22 C13         3.4032   -7.9693    3.2461 C.3       1 <0>        -0.1503
     23 C14         2.3344   -9.0738    3.4424 C.3       1 <0>         0.0486
     24 O4          2.0257   -9.5367    2.1181 O.3       1 <0>        -0.3637
     25 C15         3.1317   -9.2822    1.2385 C.3       1 <0>         0.0386
     26 N4          5.6165   -8.0222    0.1219 N.4       1 <0>        -0.3941
     27 C16         6.4084   -6.9720   -0.5682 C.3       1 <0>        -0.0203
     28 C17         7.5180   -7.7798   -1.2872 C.3       1 <0>        -0.1430
     29 C18         7.8479   -8.8957   -0.2693 C.3       1 <0>        -0.1435
     30 C19         6.6015   -9.0022    0.6288 C.3       1 <0>        -0.0123
     31 O5          5.2267   -1.7980   -3.2843 O.3       1 <0>        -0.3192
     32 C20         5.6993   -0.9225   -4.3100 C.3       1 <0>         0.0232
     33 H3          0.4501    1.8350   -0.7888 H         1 <0>         0.0563
     34 H4         -1.1261    1.5162   -1.5519 H         1 <0>         0.0860
     35 H5         -1.0374    1.8835    0.1875 H         1 <0>         0.0816
     36 H6         -0.2815    0.3724    1.7035 H         1 <0>         0.0846
     37 H7         -1.0708   -1.1657    1.2798 H         1 <0>         0.0708
     38 H8          0.6980   -1.0097    1.1567 H         1 <0>         0.0556
     39 H9          1.2040    0.2302   -3.5388 H         1 <0>         0.1486
     40 H10         3.5442   -0.0404   -4.2507 H         1 <0>         0.1475
     41 H11         1.6779   -2.9354   -0.7207 H         1 <0>         0.1756
     42 H12         5.1736   -3.3783   -1.3378 H         1 <0>         0.4128
     43 H13         5.3607   -5.2612    0.0354 H         1 <0>         0.3970
     44 H14         3.1608   -6.1461    1.5142 H         1 <0>         0.1209
     45 H15         3.1501   -7.0624   -0.0117 H         1 <0>         0.1051
     46 H16         4.0253   -7.8622    4.1347 H         1 <0>         0.1018
     47 H17         2.9416   -7.0197    2.9751 H         1 <0>         0.0951
     48 H18         2.7382   -9.8885    4.0435 H         1 <0>         0.0730
     49 H19         1.4442   -8.6590    3.9153 H         1 <0>         0.1022
     50 H20         2.8078   -8.6501    0.4116 H         1 <0>         0.0775
     51 H21         3.5271  -10.2223    0.8538 H         1 <0>         0.0788
     52 H22         5.7918   -6.4379   -1.2910 H         1 <0>         0.1403
     53 H23         6.8426   -6.2807    0.1541 H         1 <0>         0.1347
     54 H24         7.1435   -8.2054   -2.2182 H         1 <0>         0.1008
     55 H25         8.3920   -7.1551   -1.4714 H         1 <0>         0.1197
     56 H26         8.0236   -9.8392   -0.7861 H         1 <0>         0.1078
     57 H27         8.7196   -8.6206    0.3244 H         1 <0>         0.1059
     58 H28         6.8650   -8.7647    1.6594 H         1 <0>         0.1332
     59 H29         6.1872  -10.0088    0.5711 H         1 <0>         0.1347
     60 H30         5.6145    0.1108   -3.9732 H         1 <0>         0.0645
     61 H31         6.7429   -1.1488   -4.5286 H         1 <0>         0.1081
     62 H32         5.1011   -1.0614   -5.2105 H         1 <0>         0.0645
     63 H33         4.9858   -8.4671   -0.5280 H         1 <0>         0.4281
@<TRIPOS>BOND
     1    1    2 1
     2    1   33 1
     3    1   34 1
     4    1   35 1
     5    2    3 1
     6    2    4 1
     7    3   36 1
     8    3   37 1
     9    3   38 1
    10    4    5 2
    11    4    6 2
    12    4    7 1
    13    7   12 ar
    14    7    8 ar
    15    8    9 ar
    16    8   39 1
    17    9   10 ar
    18    9   40 1
    19   10   11 ar
    20   10   31 1
    21   11   12 ar
    22   11   13 1
    23   12   41 1
    24   13   14 am
    25   13   42 1
    26   14   15 2
    27   14   16 am
    28   16   17 1
    29   16   43 1
    30   17   18 1
    31   17   44 1
    32   17   45 1
    33   18   19 1
    34   18   20 1
    35   18   26 1
    36   20   21 1
    37   20   25 1
    38   20   22 1
    39   22   23 1
    40   22   46 1
    41   22   47 1
    42   23   24 1
    43   23   48 1
    44   23   49 1
    45   24   25 1
    46   25   50 1
    47   25   51 1
    48   26   30 1
    49   26   27 1
    50   26   63 1
    51   27   28 1
    52   27   52 1
    53   27   53 1
    54   28   29 1
    55   28   54 1
    56   28   55 1
    57   29   30 1
    58   29   56 1
    59   29   57 1
    60   30   58 1
    61   30   59 1
    62   31   32 1
    63   32   60 1
    64   32   61 1
    65   32   62 1
