@<TRIPOS>MOLECULE
ZINC51689270
   62    63     0     0     0
SMALL
USER_CHARGES

@<TRIPOS>ATOM
      1 C1         -0.0217    1.5236    0.0077 C.3       1 <0>        -0.1887
      2 C2         -0.0016   -0.0062   -0.0022 C.3       1 <0>         0.1355
      3 C3          0.7371   -0.5146    1.2375 C.3       1 <0>        -0.1876
      4 C4         -1.4372   -0.5352    0.0069 C.3       1 <0>        -0.1431
      5 O1          0.6681   -0.4662   -1.1778 O.3       1 <0>        -0.3533
      6 C5          1.9497   -0.0865   -1.3392 C.2       1 <0>         0.6587
      7 O2          2.4849    0.6162   -0.5048 O.2       1 <0>        -0.5393
      8 N1          2.6390   -0.4858   -2.4264 N.am      1 <0>        -0.6179
      9 C6          2.0097   -1.3316   -3.4524 C.3       1 <0>         0.0903
     10 C7          2.9276   -2.5276   -3.7259 C.3       1 <0>        -0.0206
     11 N2          4.2685   -2.0438   -4.0781 N.4       1 <0>        -0.3842
     12 C8          4.8638   -1.3426   -2.9336 C.3       1 <0>        -0.0266
     13 C9          4.0401   -0.0832   -2.6237 C.3       1 <0>         0.1066
     14 C10         5.1175   -3.1846   -4.4467 C.3       1 <0>        -0.0056
     15 C11         6.4752   -2.6738   -4.9330 C.3       1 <0>        -0.1642
     16 C12         7.3594   -3.8619   -5.3169 C.3       1 <0>         0.1423
     17 N3          8.6595   -3.3728   -5.7826 N.am      1 <0>        -0.7505
     18 C13         9.6068   -4.2469   -6.1762 C.2       1 <0>         0.7133
     19 O3          9.4176   -5.4422   -6.0585 O.2       1 <0>        -0.5764
     20 N4         10.7637   -3.7961   -6.7004 N.am      1 <0>        -0.6287
     21 C14        11.0639   -2.3563   -6.7473 C.3       1 <0>         0.0739
     22 C15        11.4911   -1.9977   -8.1752 C.3       1 <0>         0.0468
     23 O4         12.5387   -2.8785   -8.5883 O.3       1 <0>        -0.3445
     24 C16        12.1573   -4.2551   -8.6461 C.3       1 <0>         0.0593
     25 H1         11.3083   -4.3697   -9.3201 H         1 <0>         0.0922
     26 C17        11.7666   -4.7296   -7.2372 C.3       1 <0>         0.1071
     27 C18        13.3150   -5.0774   -9.1505 C.2       1 <0>         0.5250
     28 O5         14.3910   -4.5534   -9.3467 O.2       1 <0>        -0.5093
     29 N5         13.1547   -6.3951   -9.3835 N.am      1 <0>        -0.8486
     30 H2          1.0011    1.9005    0.0013 H         1 <0>         0.0852
     31 H3         -0.5480    1.8858   -0.8754 H         1 <0>         0.0624
     32 H4         -0.5325    1.8745    0.9044 H         1 <0>         0.0783
     33 H5          0.2263   -0.1637    2.1342 H         1 <0>         0.0785
     34 H6          0.7515   -1.6045    1.2304 H         1 <0>         0.0608
     35 H7          1.7599   -0.1377    1.2310 H         1 <0>         0.0848
     36 H8         -1.9634   -0.1730   -0.8763 H         1 <0>         0.0694
     37 H9         -1.4228   -1.6251   -0.0002 H         1 <0>         0.0684
     38 H10        -1.9480   -0.1844    0.9036 H         1 <0>         0.0880
     39 H11         1.0436   -1.6859   -3.0930 H         1 <0>         0.1380
     40 H12         1.8745   -0.7566   -4.3686 H         1 <0>         0.0991
     41 H13         2.9887   -3.1504   -2.8334 H         1 <0>         0.1361
     42 H14         2.5243   -3.1140   -4.5515 H         1 <0>         0.1481
     43 H15         4.8663   -2.0012   -2.0651 H         1 <0>         0.1374
     44 H16         5.8872   -1.0558   -3.1753 H         1 <0>         0.1474
     45 H17         4.1064    0.6157   -3.4575 H         1 <0>         0.1005
     46 H18         4.4170    0.3882   -1.7160 H         1 <0>         0.1410
     47 H19         5.2609   -3.8265   -3.5775 H         1 <0>         0.1364
     48 H20         4.6367   -3.7531   -5.2428 H         1 <0>         0.1397
     49 H21         6.3317   -2.0318   -5.8022 H         1 <0>         0.0963
     50 H22         6.9559   -2.1053   -4.1369 H         1 <0>         0.0953
     51 H23         7.5029   -4.5038   -4.4477 H         1 <0>         0.0797
     52 H24         6.8787   -4.4303   -6.1130 H         1 <0>         0.0786
     53 H25         8.8385   -2.4197   -5.8076 H         1 <0>         0.3981
     54 H26        10.1748   -1.7869   -6.4762 H         1 <0>         0.0863
     55 H27        11.8728   -2.1272   -6.0536 H         1 <0>         0.0881
     56 H28        10.6397   -2.1041   -8.8475 H         1 <0>         0.0602
     57 H29        11.8494   -0.9687   -8.2004 H         1 <0>         0.1181
     58 H30        12.6452   -4.7354   -6.5920 H         1 <0>         0.0872
     59 H31        11.3432   -5.7326   -7.2906 H         1 <0>         0.1116
     60 H32        12.2940   -6.8142   -9.2266 H         1 <0>         0.4031
     61 H33        13.8998   -6.9245   -9.7082 H         1 <0>         0.4120
     62 H34         4.2014   -1.4109   -4.8610 H         1 <0>         0.4244
@<TRIPOS>BOND
     1    1    2 1
     2    1   30 1
     3    1   31 1
     4    1   32 1
     5    2    3 1
     6    2    4 1
     7    2    5 1
     8    3   33 1
     9    3   34 1
    10    3   35 1
    11    4   36 1
    12    4   37 1
    13    4   38 1
    14    5    6 1
    15    6    7 2
    16    6    8 am
    17    8   13 1
    18    8    9 1
    19    9   10 1
    20    9   39 1
    21    9   40 1
    22   10   11 1
    23   10   41 1
    24   10   42 1
    25   11   12 1
    26   11   14 1
    27   11   62 1
    28   12   13 1
    29   12   43 1
    30   12   44 1
    31   13   45 1
    32   13   46 1
    33   14   15 1
    34   14   47 1
    35   14   48 1
    36   15   16 1
    37   15   49 1
    38   15   50 1
    39   16   17 1
    40   16   51 1
    41   16   52 1
    42   17   18 am
    43   17   53 1
    44   18   19 2
    45   18   20 am
    46   20   26 1
    47   20   21 1
    48   21   22 1
    49   21   54 1
    50   21   55 1
    51   22   23 1
    52   22   56 1
    53   22   57 1
    54   23   24 1
    55   24   25 1
    56   24   26 1
    57   24   27 1
    58   26   58 1
    59   26   59 1
    60   27   28 2
    61   27   29 am
    62   29   60 1
    63   29   61 1
