@<TRIPOS>MOLECULE
ZINC46024248
   53    54     0     0     0
SMALL
USER_CHARGES

@<TRIPOS>ATOM
      1 C1          0.4844    1.3982   -0.1524 C.3       1 <0>        -0.1455
      2 C2         -0.0384   -0.0305    0.0091 C.3       1 <0>        -0.0595
      3 C3          0.5330   -0.6410    1.2904 C.3       1 <0>        -0.1610
      4 C4         -1.5660   -0.0083    0.0919 C.3       1 <0>        -0.1438
      5 C5          0.3949   -0.8712   -1.1936 C.3       1 <0>        -0.0850
      6 H1         -0.0566   -0.4682   -2.1001 H         1 <0>         0.0860
      7 C6         -0.0620   -2.3179   -0.9958 C.3       1 <0>        -0.1193
      8 C7          0.3714   -3.1585   -2.1985 C.3       1 <0>        -0.1215
      9 C8          1.8955   -3.1180   -2.3265 C.3       1 <0>        -0.1170
     10 C9          2.3524   -1.6713   -2.5242 C.3       1 <0>        -0.1327
     11 C10         1.9190   -0.8307   -1.3216 C.3       1 <0>         0.1667
     12 H2          2.2446    0.2000   -1.4624 H         1 <0>         0.0942
     13 N1          2.5259   -1.3722   -0.1031 N.am      1 <0>        -0.7338
     14 C11         3.7355   -0.9344    0.2993 C.2       1 <0>         0.7061
     15 O1          4.3624   -0.1573   -0.3945 O.2       1 <0>        -0.5891
     16 N2          4.2500   -1.3581    1.4707 N.am      1 <0>        -0.6301
     17 C12         5.5148   -0.8069    1.9757 C.3       1 <0>         0.1310
     18 C13         6.4714   -1.9646    2.2783 C.3       1 <0>        -0.1295
     19 C14         5.7895   -2.9486    3.2315 C.3       1 <0>        -0.0865
     20 C15         4.5351   -3.5197    2.5663 C.3       1 <0>        -0.1253
     21 C16         3.5537   -2.3756    2.2698 C.3       1 <0>         0.1117
     22 C17         6.7545   -4.0886    3.5633 C.3       1 <0>         0.0794
     23 O2          6.1620   -4.9446    4.5423 O.3       1 <0>        -0.5737
     24 H3          1.5727    1.3824   -0.2114 H         1 <0>         0.0596
     25 H4          0.0773    1.8331   -1.0652 H         1 <0>         0.0546
     26 H5          0.1757    1.9971    0.7044 H         1 <0>         0.0535
     27 H6          0.0402   -0.1972    2.1555 H         1 <0>         0.0499
     28 H7          0.3622   -1.7175    1.2876 H         1 <0>         0.0539
     29 H8          1.6037   -0.4430    1.3411 H         1 <0>         0.0728
     30 H9         -1.9731    0.4265   -0.8209 H         1 <0>         0.0545
     31 H10        -1.9385   -1.0262    0.2070 H         1 <0>         0.0569
     32 H11        -1.8747    0.5906    0.9488 H         1 <0>         0.0542
     33 H12         0.3896   -2.7208   -0.0893 H         1 <0>         0.0605
     34 H13        -1.1478   -2.3468   -0.9047 H         1 <0>         0.0701
     35 H14         0.0458   -4.1892   -2.0576 H         1 <0>         0.0619
     36 H15        -0.0802   -2.7556   -3.1051 H         1 <0>         0.0639
     37 H16         2.3470   -3.5210   -1.4199 H         1 <0>         0.0578
     38 H17         2.2042   -3.7169   -3.1833 H         1 <0>         0.0610
     39 H18         3.4382   -1.6424   -2.6154 H         1 <0>         0.0682
     40 H19         1.9008   -1.2683   -3.4308 H         1 <0>         0.0707
     41 H20         2.0573   -2.0459    0.4140 H         1 <0>         0.3966
     42 H21         5.9565   -0.1554    1.2216 H         1 <0>         0.0969
     43 H22         5.3279   -0.2395    2.8875 H         1 <0>         0.0660
     44 H23         6.7287   -2.4757    1.3506 H         1 <0>         0.0694
     45 H24         7.3773   -1.5759    2.7434 H         1 <0>         0.0781
     46 H25         5.5102   -2.4309    4.1492 H         1 <0>         0.0806
     47 H26         4.8107   -4.0163    1.6360 H         1 <0>         0.0654
     48 H27         4.0628   -4.2380    3.2366 H         1 <0>         0.0831
     49 H28         3.2102   -1.9336    3.2050 H         1 <0>         0.0715
     50 H29         2.7011   -2.7596    1.7098 H         1 <0>         0.0732
     51 H30         6.9649   -4.6610    2.6599 H         1 <0>         0.0452
     52 H31         7.6834   -3.6755    3.9563 H         1 <0>         0.0471
     53 H32         6.7194   -5.6912    4.8009 H         1 <0>         0.3809
@<TRIPOS>BOND
     1    1    2 1
     2    1   24 1
     3    1   25 1
     4    1   26 1
     5    2    3 1
     6    2    4 1
     7    2    5 1
     8    3   27 1
     9    3   28 1
    10    3   29 1
    11    4   30 1
    12    4   31 1
    13    4   32 1
    14    5    6 1
    15    5   11 1
    16    5    7 1
    17    7    8 1
    18    7   33 1
    19    7   34 1
    20    8    9 1
    21    8   35 1
    22    8   36 1
    23    9   10 1
    24    9   37 1
    25    9   38 1
    26   10   11 1
    27   10   39 1
    28   10   40 1
    29   11   12 1
    30   11   13 1
    31   13   14 am
    32   13   41 1
    33   14   15 2
    34   14   16 am
    35   16   21 1
    36   16   17 1
    37   17   18 1
    38   17   42 1
    39   17   43 1
    40   18   19 1
    41   18   44 1
    42   18   45 1
    43   19   20 1
    44   19   22 1
    45   19   46 1
    46   20   21 1
    47   20   47 1
    48   20   48 1
    49   21   49 1
    50   21   50 1
    51   22   23 1
    52   22   51 1
    53   22   52 1
    54   23   53 1
