@<TRIPOS>MOLECULE
ZINC04457545
   46    48     0     0     0
SMALL
USER_CHARGES

@<TRIPOS>ATOM
      1 C1         -0.0187    1.5258    0.0104 C.3       1 <0>        -0.1534
      2 C2          0.0021   -0.0041    0.0020 C.3       1 <0>        -0.1209
      3 C3         -1.4333   -0.5336    0.0129 C.3       1 <0>         0.0538
      4 N1         -1.4134   -2.0025    0.0048 N.3       1 <0>        -0.5278
      5 C4         -0.8584   -2.5302    1.2642 C.3       1 <0>         0.0753
      6 C5         -0.7100   -4.0235    1.1062 C.2       1 <0>        -0.1231
      7 C6         -1.5718   -4.6970    0.3674 C.2       1 <0>        -0.0507
      8 C7         -2.7533   -4.0539   -0.3008 C.3       1 <0>        -0.0302
      9 H1         -3.6519   -4.4017    0.2089 H         1 <0>         0.0873
     10 C8         -2.7557   -2.5447   -0.2229 C.3       1 <0>         0.0608
     11 C9         -2.8149   -4.5569   -1.7439 C.3       1 <0>        -0.0219
     12 H2         -1.8735   -4.3372   -2.2476 H         1 <0>         0.1341
     13 C10        -3.0488   -6.0679   -1.7319 C.3       1 <0>         0.2116
     14 C11        -2.0827   -6.7745   -0.8299 C.2       1 <0>         0.2402
     15 C12        -1.3931   -6.1562    0.1628 C.2       1 <0>        -0.1211
     16 C13        -0.5042   -6.9025    1.0017 C.1       1 <0>         0.2616
     17 N2          0.2009   -7.4944    1.6672 N.1       1 <0>        -0.4202
     18 N3         -1.8855   -8.1139   -1.0165 N.pl3     1 <0>        -0.8396
     19 C14        -2.8951   -6.5878   -3.1004 C.1       1 <0>         0.1912
     20 N4         -2.7764   -6.9890   -4.1566 N.1       1 <0>        -0.3456
     21 C15        -4.4204   -6.3370   -1.2702 C.1       1 <0>         0.2032
     22 N5         -5.4789   -6.5447   -0.9139 N.1       1 <0>        -0.3517
     23 C16        -3.9462   -3.8743   -2.4686 C.ar      1 <0>        -0.0534
     24 C17        -5.2528   -3.9986   -2.0217 C.ar      1 <0>        -0.1838
     25 C18        -6.2645   -3.3582   -2.7120 C.ar      1 <0>         0.1099
     26 N6         -5.9983   -2.6366   -3.7832 N.ar      1 <0>        -0.4772
     27 C19        -4.7679   -2.4963   -4.2366 C.ar      1 <0>         0.1059
     28 C20        -3.7046   -3.1023   -3.5946 C.ar      1 <0>        -0.1523
     29 H3          1.0039    1.9031    0.0027 H         1 <0>         0.0573
     30 H4         -0.5459    1.8868   -0.8726 H         1 <0>         0.0550
     31 H5         -0.5289    1.8773    0.9072 H         1 <0>         0.0525
     32 H6          0.5123   -0.3556   -0.8948 H         1 <0>         0.0724
     33 H7          0.5293   -0.3651    0.8851 H         1 <0>         0.0627
     34 H8         -1.9435   -0.1821    0.9097 H         1 <0>         0.0365
     35 H9         -1.9605   -0.1726   -0.8702 H         1 <0>         0.0767
     36 H10         0.1155   -2.0800    1.4566 H         1 <0>         0.0942
     37 H11        -1.5374   -2.3110    2.0882 H         1 <0>         0.0540
     38 H12         0.1010   -4.5409    1.5971 H         1 <0>         0.1197
     39 H13        -3.4066   -2.2332    0.5940 H         1 <0>         0.0449
     40 H14        -3.1462   -2.1425   -1.1577 H         1 <0>         0.0886
     41 H15        -2.3651   -8.5816   -1.7181 H         1 <0>         0.4055
     42 H16        -1.2660   -8.5968   -0.4474 H         1 <0>         0.4147
     43 H17        -5.4773   -4.5887   -1.1455 H         1 <0>         0.1409
     44 H18        -7.2849   -3.4500   -2.3704 H         1 <0>         0.1584
     45 H19        -4.5887   -1.8975   -5.1174 H         1 <0>         0.1608
     46 H20        -2.6986   -2.9796   -3.9679 H         1 <0>         0.1432
@<TRIPOS>BOND
     1    1    2 1
     2    1   29 1
     3    1   30 1
     4    1   31 1
     5    2    3 1
     6    2   32 1
     7    2   33 1
     8    3    4 1
     9    3   34 1
    10    3   35 1
    11    4   10 1
    12    4    5 1
    13    5    6 1
    14    5   36 1
    15    5   37 1
    16    6    7 2
    17    6   38 1
    18    7   15 1
    19    7    8 1
    20    8    9 1
    21    8   10 1
    22    8   11 1
    23   10   39 1
    24   10   40 1
    25   11   12 1
    26   11   13 1
    27   11   23 1
    28   13   14 1
    29   13   19 1
    30   13   21 1
    31   14   15 2
    32   14   18 1
    33   15   16 1
    34   16   17 3
    35   18   41 1
    36   18   42 1
    37   19   20 3
    38   21   22 3
    39   23   28 ar
    40   23   24 ar
    41   24   25 ar
    42   24   43 1
    43   25   26 ar
    44   25   44 1
    45   26   27 ar
    46   27   28 ar
    47   27   45 1
    48   28   46 1
