@<TRIPOS>MOLECULE
ZINC66248060
   41    42     0     0     0
SMALL
USER_CHARGES

@<TRIPOS>ATOM
      1 C1         -0.0187    1.5258    0.0104 C.3       1 <0>        -0.1843
      2 C2          0.0021   -0.0041    0.0020 C.3       1 <0>        -0.1362
      3 C3          0.7074   -0.4901   -1.2379 C.ar      1 <0>         0.0808
      4 C4         -0.0229   -0.8173   -2.3653 C.ar      1 <0>        -0.1450
      5 C5          0.6241   -1.2630   -3.5024 C.ar      1 <0>        -0.0164
      6 C6          2.0015   -1.3812   -3.5127 C.ar      1 <0>        -0.0843
      7 C7          2.7317   -1.0533   -2.3859 C.ar      1 <0>         0.0407
      8 C8          2.0849   -0.6033   -1.2498 C.ar      1 <0>        -0.6286
      9 S1          3.0162   -0.1795    0.1847 S.o2      1 <0>         2.6374
     10 O1          2.3967   -0.8387    1.2805 O.2       1 <0>        -1.0086
     11 O2          4.3841   -0.3742   -0.1470 O.2       1 <0>        -1.0127
     12 N1          2.8166    1.4452    0.4356 N.2       1 <0>        -1.0907
     13 C9          3.4447    2.0656    1.5119 C.2       1 <0>         0.4390
     14 C10         4.2515    1.4635    2.4288 C.2       1 <0>        -0.4258
     15 C11         4.6723    2.4407    3.3353 C.2       1 <0>         0.1048
     16 N2          4.1433    3.5841    2.9825 N.2       1 <0>        -0.3499
     17 N3          3.3692    3.3771    1.8337 N.pl3     1 <0>        -0.3940
     18 C12         2.6096    4.3998    1.1103 C.3       1 <0>         0.1646
     19 C13         1.1947    4.4866    1.6860 C.3       1 <0>        -0.0515
     20 C14         0.4314    5.5141    0.9591 C.1       1 <0>         0.2208
     21 N4         -0.1576    6.3071    0.3982 N.1       1 <0>        -0.4470
     22 C15         5.5797    2.2156    4.5173 C.3       1 <0>        -0.0669
     23 N5          2.6943   -1.8595   -4.7302 N.pl3     1 <0>         0.0403
     24 O3          2.0556   -2.1468   -5.7157 O.2       1 <0>        -0.1688
     25 O4          3.8988   -1.9629   -4.7391 O.3       1 <0>        -0.1584
     26 H1          1.0039    1.9031    0.0027 H         1 <0>         0.1336
     27 H2         -0.5459    1.8868   -0.8726 H         1 <0>         0.0416
     28 H3         -0.5289    1.8773    0.9072 H         1 <0>         0.0568
     29 H4          0.5293   -0.3651    0.8851 H         1 <0>         0.1231
     30 H5         -1.0205   -0.3814    0.0098 H         1 <0>         0.0781
     31 H6         -1.0989   -0.7249   -2.3573 H         1 <0>         0.1503
     32 H7          0.0535   -1.5193   -4.3829 H         1 <0>         0.1544
     33 H8          3.8077   -1.1460   -2.3937 H         1 <0>         0.1680
     34 H9          4.5185    0.4172    2.4517 H         1 <0>         0.1216
     35 H10         3.1054    5.3645    1.2177 H         1 <0>         0.0844
     36 H11         2.5566    4.1341    0.0545 H         1 <0>         0.0988
     37 H12         0.6989    3.5218    1.5785 H         1 <0>         0.1194
     38 H13         1.2477    4.7523    2.7418 H         1 <0>         0.1120
     39 H14         6.6164    2.3570    4.2116 H         1 <0>         0.0672
     40 H15         5.3330    2.9269    5.3054 H         1 <0>         0.0629
     41 H16         5.4461    1.1999    4.8897 H         1 <0>         0.0685
@<TRIPOS>BOND
     1    1    2 1
     2    1   26 1
     3    1   27 1
     4    1   28 1
     5    2    3 1
     6    2   29 1
     7    2   30 1
     8    3    8 ar
     9    3    4 ar
    10    4    5 ar
    11    4   31 1
    12    5    6 ar
    13    5   32 1
    14    6    7 ar
    15    6   23 1
    16    7    8 ar
    17    7   33 1
    18    8    9 1
    19    9   10 2
    20    9   11 2
    21    9   12 1
    22   12   13 1
    23   13   17 1
    24   13   14 2
    25   14   15 1
    26   14   34 1
    27   15   16 2
    28   15   22 1
    29   16   17 1
    30   17   18 1
    31   18   19 1
    32   18   35 1
    33   18   36 1
    34   19   20 1
    35   19   37 1
    36   19   38 1
    37   20   21 3
    38   22   39 1
    39   22   40 1
    40   22   41 1
    41   23   24 2
    42   23   25 1
