@<TRIPOS>MOLECULE
ZINC23214131
   37    40     0     0     0
SMALL
USER_CHARGES

@<TRIPOS>ATOM
      1 C1         -1.0094   -4.0529   -0.0784 C.2       1 <0>        -0.0164
      2 C2          0.0469   -4.8992   -0.1549 C.2       1 <0>        -0.0276
      3 N1          1.1645   -4.1764   -0.1442 N.2       1 <0>        -0.4401
      4 C3          0.8515   -2.9006   -0.0634 C.2       1 <0>         0.1482
      5 N2         -0.5105   -2.7955   -0.0207 N.pl3     1 <0>        -0.5211
      6 H1         -1.0233   -1.9744    0.0394 H         1 <0>         0.4325
      7 C4          1.8059   -1.7779   -0.0252 C.2       1 <0>         0.6096
      8 O1          1.3998   -0.6327   -0.0729 O.2       1 <0>        -0.5389
      9 N3          3.1287   -2.0207    0.0627 N.am      1 <0>        -0.5852
     10 C5          4.0887   -0.9140    0.1776 C.3       1 <0>         0.1141
     11 C6          4.7695   -0.9690    1.5506 C.3       1 <0>        -0.0555
     12 C7          5.1907   -2.3925    1.8251 C.2       1 <0>         0.0838
     13 C8          4.6765   -3.5034    1.1430 C.2       1 <0>        -0.2043
     14 C9          5.2690   -4.6184    1.6426 C.2       1 <0>         0.1221
     15 N4          6.1368   -4.2116    2.6151 N.pl3     1 <0>        -0.4681
     16 H2          6.7047   -4.7868    3.1514 H         1 <0>         0.4422
     17 N5          6.0605   -2.8136    2.7002 N.2       1 <0>        -0.2627
     18 C10         5.0208   -6.0125    1.2136 C.ar      1 <0>         0.0080
     19 C11         4.4431   -6.9245    2.0971 C.ar      1 <0>        -0.1085
     20 C12         4.2138   -8.2248    1.6910 C.ar      1 <0>         0.1213
     21 C13         4.5574   -8.6236    0.4078 C.ar      1 <0>        -0.0543
     22 C14         5.1312   -7.7227   -0.4719 C.ar      1 <0>        -0.0706
     23 C15         5.3587   -6.4185   -0.0785 C.ar      1 <0>        -0.0115
     24 Cl1         6.0710   -5.2879   -1.1867 Cl        1 <0>        -0.0284
     25 Cl2         4.2672  -10.2593   -0.0962 Cl        1 <0>        -0.0268
     26 F1          3.6543   -9.1094    2.5452 F         1 <0>        -0.1156
     27 C16         3.6428   -3.4025    0.0517 C.3       1 <0>         0.1424
     28 H3         -2.0533   -4.3296   -0.0699 H         1 <0>         0.1895
     29 H4         -0.0089   -5.9761   -0.2139 H         1 <0>         0.1807
     30 H5          4.8418   -1.0035   -0.6053 H         1 <0>         0.0829
     31 H6          3.5636    0.0351    0.0701 H         1 <0>         0.1074
     32 H7          5.6466   -0.3218    1.5501 H         1 <0>         0.1007
     33 H8          4.0700   -0.6400    2.3191 H         1 <0>         0.0910
     34 H9          4.1759   -6.6147    3.0966 H         1 <0>         0.1569
     35 H10         5.3971   -8.0388   -1.4698 H         1 <0>         0.1615
     36 H11         2.8302   -4.1029    0.2444 H         1 <0>         0.1603
     37 H12         4.1020   -3.6206   -0.9125 H         1 <0>         0.0805
@<TRIPOS>BOND
     1    1    5 1
     2    1    2 2
     3    1   28 1
     4    2    3 1
     5    2   29 1
     6    3    4 2
     7    4    5 1
     8    4    7 1
     9    5    6 1
    10    7    8 2
    11    7    9 am
    12    9   27 1
    13    9   10 1
    14   10   11 1
    15   10   30 1
    16   10   31 1
    17   11   12 1
    18   11   32 1
    19   11   33 1
    20   12   17 2
    21   12   13 1
    22   13   14 2
    23   13   27 1
    24   14   15 1
    25   14   18 1
    26   15   16 1
    27   15   17 1
    28   18   23 ar
    29   18   19 ar
    30   19   20 ar
    31   19   34 1
    32   20   21 ar
    33   20   26 1
    34   21   22 ar
    35   21   25 1
    36   22   23 ar
    37   22   35 1
    38   23   24 1
    39   27   36 1
    40   27   37 1
