@<TRIPOS>MOLECULE
ZINC45135693
   35    37     0     0     0
SMALL
USER_CHARGES

@<TRIPOS>ATOM
      1 C1          0.1721    1.6143   -0.1011 C.3       1 <0>        -0.1240
      2 C2          0.2005    0.0853   -0.1493 C.3       1 <0>        -0.1284
      3 C3         -0.6784   -0.6694    0.8501 C.3       1 <0>        -0.1791
      4 C4          0.8406   -0.6469    1.0317 C.3       1 <0>         0.0729
      5 H1          1.3867   -1.5658    0.8180 H         1 <0>         0.1335
      6 N1          1.3795    0.1696    2.1222 N.pl3     1 <0>        -0.6911
      7 C5          2.3987   -0.3358    2.9369 C.ar      1 <0>         0.3001
      8 C6          2.8182   -1.6517    2.7880 C.ar      1 <0>        -0.2082
      9 C7          3.8269   -2.1471    3.5962 C.ar      1 <0>         0.2015
     10 C8          4.4186   -1.3270    4.5563 C.ar      1 <0>         0.0231
     11 C9          3.9984   -0.0169    4.7007 C.ar      1 <0>        -0.0005
     12 C10         2.9941    0.4799    3.8897 C.ar      1 <0>        -0.1231
     13 N2          2.5490    1.8835    4.0418 N.pl3     1 <0>         0.0479
     14 O1          3.3562    2.7510    4.2818 O.2       1 <0>        -0.1387
     15 O2          1.3783    2.1624    3.9260 O.3       1 <0>        -0.1831
     16 O3          5.4077   -1.8281    5.3459 O.3       1 <0>        -0.2908
     17 C11         5.3190   -3.2144    5.6849 C.3       1 <0>         0.0484
     18 C12         5.0085   -4.0192    4.4484 C.2       1 <0>         0.4939
     19 O4          5.4237   -5.1537    4.3402 O.2       1 <0>        -0.4919
     20 N3          4.2657   -3.4719    3.4618 N.am      1 <0>        -0.6595
     21 C13         0.3762   -0.5279   -1.5400 C.3       1 <0>        -0.1175
     22 H2          1.1919    1.9950   -0.0447 H         1 <0>         0.0605
     23 H3         -0.3095    1.9973   -1.0008 H         1 <0>         0.0701
     24 H4         -0.3863    1.9399    0.7765 H         1 <0>         0.0611
     25 H5         -1.2768   -0.0767    1.5420 H         1 <0>         0.1031
     26 H6         -1.1317   -1.6030    0.5170 H         1 <0>         0.1071
     27 H7          1.0298    1.0606    2.2794 H         1 <0>         0.4185
     28 H8          2.3587   -2.2861    2.0445 H         1 <0>         0.1564
     29 H9          4.4567    0.6186    5.4439 H         1 <0>         0.1650
     30 H10         6.2683   -3.5467    6.1052 H         1 <0>         0.1539
     31 H11         4.5271   -3.3584    6.4199 H         1 <0>         0.1061
     32 H12         4.0391   -3.9879    2.6723 H         1 <0>         0.4217
     33 H13         1.4379   -0.5860   -1.7799 H         1 <0>         0.0622
     34 H14        -0.0545   -1.5291   -1.5527 H         1 <0>         0.0613
     35 H15        -0.1295    0.0946   -2.2781 H         1 <0>         0.0677
@<TRIPOS>BOND
     1    1    2 1
     2    1   22 1
     3    1   23 1
     4    1   24 1
     5    2    4 1
     6    2    3 1
     7    2   21 1
     8    3    4 1
     9    3   25 1
    10    3   26 1
    11    4    5 1
    12    4    6 1
    13    6    7 1
    14    6   27 1
    15    7   12 ar
    16    7    8 ar
    17    8    9 ar
    18    8   28 1
    19    9   20 1
    20    9   10 ar
    21   10   11 ar
    22   10   16 1
    23   11   12 ar
    24   11   29 1
    25   12   13 1
    26   13   14 2
    27   13   15 1
    28   16   17 1
    29   17   18 1
    30   17   30 1
    31   17   31 1
    32   18   19 2
    33   18   20 am
    34   20   32 1
    35   21   33 1
    36   21   34 1
    37   21   35 1
