@<TRIPOS>MOLECULE
ZINC67642625
   48    51     0     0     0
SMALL
USER_CHARGES

@<TRIPOS>ATOM
      1 C1         -0.0184    1.5028    0.0103 C.3       1 <0>        -0.1227
      2 C2          0.0021   -0.0041    0.0020 C.ar      1 <0>        -0.0647
      3 C3          0.0057   -0.6867   -1.2019 C.ar      1 <0>        -0.1064
      4 C4          0.0249   -2.0680   -1.2205 C.ar      1 <0>        -0.0997
      5 C5          0.0405   -2.7786   -0.0294 C.ar      1 <0>         0.1583
      6 C6          0.0369   -2.0906    1.1893 C.ar      1 <0>        -0.0301
      7 C7          0.0228   -0.6977    1.1950 C.ar      1 <0>        -0.0985
      8 C8          0.0531   -2.8407    2.4681 C.ar      1 <0>        -0.0535
      9 C9         -1.0384   -2.7730    3.3284 C.ar      1 <0>        -0.0710
     10 C10        -1.0281   -3.4703    4.5194 C.ar      1 <0>        -0.0944
     11 C11         0.0702   -4.2430    4.8575 C.ar      1 <0>        -0.0636
     12 C12         1.1540   -4.3176    4.0096 C.ar      1 <0>        -0.1675
     13 C13         1.1668   -3.6238    2.8084 C.ar      1 <0>         0.1066
     14 O1          2.3325   -3.8231    2.1352 O.3       1 <0>        -0.2824
     15 C14         2.9717   -5.0094    2.6366 C.3       1 <0>         0.0510
     16 H1          2.6550   -5.8866    2.0725 H         1 <0>         0.1093
     17 C15         2.4662   -5.0728    4.1005 C.3       1 <0>        -0.0981
     18 C16         4.4942   -4.8628    2.5974 C.3       1 <0>         0.0063
     19 N1          4.9323   -4.6741    1.2080 N.4       1 <0>        -0.6309
     20 C17        -2.2101   -3.3905    5.4507 C.3       1 <0>        -0.1169
     21 N2          0.0595   -4.1764   -0.0462 N.am      1 <0>        -0.5779
     22 C18        -1.1210   -5.0629   -0.0566 C.3       1 <0>         0.0609
     23 C19        -0.5042   -6.4246   -0.4554 C.3       1 <0>         0.0416
     24 O2          0.8660   -6.2671   -0.0384 O.3       1 <0>        -0.3322
     25 C20         1.1575   -4.9554   -0.0617 C.2       1 <0>         0.6596
     26 O3          2.2911   -4.5188   -0.0905 O.2       1 <0>        -0.5327
     27 H2          1.0042    1.8801    0.0026 H         1 <0>         0.0768
     28 H3         -0.5455    1.8639   -0.8728 H         1 <0>         0.0740
     29 H4         -0.5286    1.8543    0.9071 H         1 <0>         0.0723
     30 H5         -0.0068   -0.1369   -2.1314 H         1 <0>         0.1342
     31 H6          0.0273   -2.5950   -2.1632 H         1 <0>         0.1288
     32 H7          0.0241   -0.1611    2.1323 H         1 <0>         0.1321
     33 H8         -1.8962   -2.1727    3.0635 H         1 <0>         0.1375
     34 H9          0.0775   -4.7889    5.7894 H         1 <0>         0.1314
     35 H10         3.1557   -4.5749    4.7823 H         1 <0>         0.1016
     36 H11         2.3004   -6.1068    4.4028 H         1 <0>         0.1036
     37 H12         4.7915   -3.9993    3.1925 H         1 <0>         0.1399
     38 H13         4.9564   -5.7617    3.0052 H         1 <0>         0.1501
     39 H14         4.6571   -5.4734    0.6571 H         1 <0>         0.4379
     40 H15         4.5044   -3.8420    0.8304 H         1 <0>         0.4462
     41 H16        -2.9201   -4.1803    5.2053 H         1 <0>         0.0756
     42 H17        -1.8712   -3.5134    6.4793 H         1 <0>         0.0718
     43 H18        -2.6941   -2.4200    5.3412 H         1 <0>         0.0724
     44 H19        -1.5742   -5.1172    0.9332 H         1 <0>         0.0936
     45 H20        -1.8473   -4.7333   -0.7996 H         1 <0>         0.1070
     46 H21        -0.9836   -7.2418    0.0835 H         1 <0>         0.1274
     47 H22        -0.5679   -6.5802   -1.5324 H         1 <0>         0.1008
     48 H23         5.9363   -4.5774    1.1821 H         1 <0>         0.4346
@<TRIPOS>BOND
     1    1    2 1
     2    1   27 1
     3    1   28 1
     4    1   29 1
     5    2    7 ar
     6    2    3 ar
     7    3    4 ar
     8    3   30 1
     9    4    5 ar
    10    4   31 1
    11    5    6 ar
    12    5   21 1
    13    6    7 ar
    14    6    8 1
    15    7   32 1
    16    8   13 ar
    17    8    9 ar
    18    9   10 ar
    19    9   33 1
    20   10   11 ar
    21   10   20 1
    22   11   12 ar
    23   11   34 1
    24   12   17 1
    25   12   13 ar
    26   13   14 1
    27   14   15 1
    28   15   16 1
    29   15   17 1
    30   15   18 1
    31   17   35 1
    32   17   36 1
    33   18   19 1
    34   18   37 1
    35   18   38 1
    36   19   39 1
    37   19   40 1
    38   19   48 1
    39   20   41 1
    40   20   42 1
    41   20   43 1
    42   21   25 am
    43   21   22 1
    44   22   23 1
    45   22   44 1
    46   22   45 1
    47   23   24 1
    48   23   46 1
    49   23   47 1
    50   24   25 1
    51   25   26 2
