@<TRIPOS>MOLECULE
ZINC64045010
   68    72     0     0     0
SMALL
USER_CHARGES

@<TRIPOS>ATOM
      1 C1         -0.0173    1.4248    0.0099 C.3       1 <0>         0.0269
      2 O1          0.0021   -0.0041    0.0020 O.3       1 <0>        -0.3898
      3 C2         -1.2953   -0.6030    0.0112 C.3       1 <0>         0.0428
      4 C3         -1.1538   -2.1264    0.0017 C.3       1 <0>         0.1168
      5 N1         -0.5155   -2.5654    1.2451 N.am      1 <0>        -0.5660
      6 C4          0.8162   -2.6911    1.4090 C.2       1 <0>         0.5372
      7 O2          1.6793   -2.4707    0.5866 O.2       1 <0>        -0.4534
      8 C5          1.0106   -3.1645    2.8359 C.3       1 <0>         0.1314
      9 N2         -0.3631   -3.2595    3.3593 N.am      1 <0>        -0.7195
     10 C6         -1.1824   -2.8854    2.3599 C.2       1 <0>         0.6992
     11 O3         -2.3932   -2.8459    2.4578 O.2       1 <0>        -0.5186
     12 C7          1.6919   -4.5342    2.8604 C.3       1 <0>        -0.0727
     13 C8          0.8444   -5.5303    2.1117 C.ar      1 <0>        -0.1279
     14 C9         -0.1264   -6.2523    2.7808 C.ar      1 <0>        -0.0716
     15 C10        -0.9045   -7.1657    2.0952 C.ar      1 <0>        -0.1494
     16 C11        -0.7115   -7.3577    0.7376 C.ar      1 <0>         0.1166
     17 C12         0.2610   -6.6340    0.0686 C.ar      1 <0>        -0.1504
     18 C13         1.0344   -5.7174    0.7552 C.ar      1 <0>        -0.0852
     19 F1         -1.4713   -8.2506    0.0665 F         1 <0>        -0.1295
     20 C14         1.8221   -2.1436    3.6359 C.3       1 <0>        -0.0922
     21 C15         3.2399   -2.0550    3.0640 C.3       1 <0>        -0.1587
     22 C16         4.0212   -0.9761    3.8169 C.3       1 <0>        -0.0038
     23 N3          3.3477    0.3189    3.6620 N.4       1 <0>        -0.3935
     24 C17         2.0139    0.2627    4.2723 C.3       1 <0>        -0.0151
     25 C18         1.1554   -0.7685    3.5369 C.3       1 <0>        -0.1564
     26 C19         4.1423    1.3643    4.3206 C.3       1 <0>        -0.0065
     27 C20         3.5078    2.7309    4.0543 C.3       1 <0>         0.0700
     28 H1          2.5303    2.7904    4.5327 H         1 <0>         0.1876
     29 C21         4.4077    3.8324    4.5683 C.2       1 <0>         0.0481
     30 C22         4.7337    4.5831    3.4915 C.ar      1 <0>        -0.1443
     31 C23         5.5666    5.7808    3.3298 C.ar      1 <0>        -0.0032
     32 C24         5.7080    6.3200    2.0975 C.ar      1 <0>        -0.1457
     33 C25         5.0805    5.7649    0.9737 C.ar      1 <0>         0.0931
     34 C26         4.3001    4.6657    1.0428 C.ar      1 <0>        -0.2213
     35 C27         4.0820    4.0163    2.2892 C.ar      1 <0>         0.3459
     36 N4          3.3787    2.9557    2.6103 N.pl3     1 <0>        -0.6286
     37 H2          1.0053    1.8021    0.0021 H         1 <0>         0.0723
     38 H3         -0.5445    1.7859   -0.8732 H         1 <0>         0.0555
     39 H4         -0.5275    1.7763    0.9067 H         1 <0>         0.0385
     40 H5         -1.8320   -0.2936    0.9080 H         1 <0>         0.0607
     41 H6         -1.8490   -0.2840   -0.8718 H         1 <0>         0.0807
     42 H7         -2.1404   -2.5824   -0.0809 H         1 <0>         0.1199
     43 H8         -0.5414   -2.4291   -0.8477 H         1 <0>         0.1100
     44 H9         -0.6256   -3.5351    4.2515 H         1 <0>         0.4435
     45 H10         2.6709   -4.4616    2.3869 H         1 <0>         0.1012
     46 H11         1.8112   -4.8622    3.8931 H         1 <0>         0.1027
     47 H12        -0.2764   -6.1026    3.8398 H         1 <0>         0.1319
     48 H13        -1.6625   -7.7298    2.6182 H         1 <0>         0.1421
     49 H14         0.4126   -6.7832   -0.9903 H         1 <0>         0.1409
     50 H15         1.7900   -5.1496    0.2327 H         1 <0>         0.1318
     51 H16         1.8678   -2.4522    4.6803 H         1 <0>         0.1181
     52 H17         3.7406   -3.0160    3.1817 H         1 <0>         0.1325
     53 H18         3.1902   -1.7969    2.0061 H         1 <0>         0.1120
     54 H19         4.0706   -1.2352    4.8745 H         1 <0>         0.1440
     55 H20         5.0312   -0.9105    3.4123 H         1 <0>         0.1422
     56 H21         2.1061   -0.0229    5.3202 H         1 <0>         0.1500
     57 H22         1.5420    1.2429    4.2039 H         1 <0>         0.1270
     58 H23         1.0624   -0.4838    2.4888 H         1 <0>         0.0957
     59 H24         0.1661   -0.8100    3.9926 H         1 <0>         0.1250
     60 H25         4.1682    1.1787    5.3944 H         1 <0>         0.1782
     61 H26         5.1579    1.3520    3.9252 H         1 <0>         0.1567
     62 H27         4.7256    3.9881    5.5887 H         1 <0>         0.2241
     63 H28         6.0589    6.2251    4.1821 H         1 <0>         0.1748
     64 H29         6.3200    7.2015    1.9763 H         1 <0>         0.1701
     65 H30         5.2272    6.2363    0.0132 H         1 <0>         0.1728
     66 H31         3.8390    4.2772    0.1468 H         1 <0>         0.1682
     67 H32         2.8608    2.4114    1.9967 H         1 <0>         0.4489
     68 H33         3.2585    0.5352    2.6805 H         1 <0>         0.4158
@<TRIPOS>BOND
     1    1    2 1
     2    1   37 1
     3    1   38 1
     4    1   39 1
     5    2    3 1
     6    3    4 1
     7    3   40 1
     8    3   41 1
     9    4    5 1
    10    4   42 1
    11    4   43 1
    12    5   10 am
    13    5    6 am
    14    6    7 2
    15    6    8 1
    16    8    9 1
    17    8   12 1
    18    8   20 1
    19    9   10 am
    20    9   44 1
    21   10   11 2
    22   12   13 1
    23   12   45 1
    24   12   46 1
    25   13   18 ar
    26   13   14 ar
    27   14   15 ar
    28   14   47 1
    29   15   16 ar
    30   15   48 1
    31   16   17 ar
    32   16   19 1
    33   17   18 ar
    34   17   49 1
    35   18   50 1
    36   20   25 1
    37   20   21 1
    38   20   51 1
    39   21   22 1
    40   21   52 1
    41   21   53 1
    42   22   23 1
    43   22   54 1
    44   22   55 1
    45   23   24 1
    46   23   26 1
    47   23   68 1
    48   24   25 1
    49   24   56 1
    50   24   57 1
    51   25   58 1
    52   25   59 1
    53   26   27 1
    54   26   60 1
    55   26   61 1
    56   27   28 1
    57   27   36 1
    58   27   29 1
    59   29   30 2
    60   29   62 1
    61   30   35 ar
    62   30   31 ar
    63   31   32 ar
    64   31   63 1
    65   32   33 ar
    66   32   64 1
    67   33   34 ar
    68   33   65 1
    69   34   35 ar
    70   34   66 1
    71   35   36 2
    72   36   67 1
