@<TRIPOS>MOLECULE
ZINC20830657
   55    58     0     0     0
SMALL
USER_CHARGES
2-[[4-amino-5-(4-pyridyl)-1,2,4-triazol-3-yl]sulfanyl]-N-[4-(o-tolylsulfamoyl)phenyl]acetamide
@<TRIPOS>ATOM
      1 C1          2.0662   -0.3118   -1.4580 C.3       1 <0>        -0.1170
      2 C2          2.2918    1.0777   -0.9200 C.ar      1 <0>        -0.1042
      3 C3          3.5582    1.6289   -0.9381 C.ar      1 <0>        -0.0977
      4 C4          3.7660    2.9040   -0.4454 C.ar      1 <0>        -0.1323
      5 C5          2.7074    3.6317    0.0673 C.ar      1 <0>        -0.0946
      6 C6          1.4380    3.0885    0.0839 C.ar      1 <0>        -0.1747
      7 C7          1.2266    1.8057   -0.4058 C.ar      1 <0>         0.1597
      8 N1         -0.0554    1.2515   -0.3865 N.pl3     1 <0>        -1.0662
      9 S1         -1.3773    2.2135   -0.6500 S.o2      1 <0>         2.6946
     10 O1         -2.5031    1.3486   -0.7118 O.2       1 <0>        -0.9506
     11 O2         -1.2906    3.2860    0.2782 O.2       1 <0>        -0.9498
     12 C8         -1.1962    2.9198   -2.2540 C.ar      1 <0>        -0.6914
     13 C9         -0.5470    4.1313   -2.4051 C.ar      1 <0>         0.0059
     14 C10        -0.3992    4.6853   -3.6616 C.ar      1 <0>        -0.1632
     15 C11        -0.9123    4.0291   -4.7728 C.ar      1 <0>         0.2097
     16 C12        -1.5685    2.8152   -4.6171 C.ar      1 <0>        -0.1452
     17 C13        -1.7087    2.2642   -3.3584 C.ar      1 <0>         0.0032
     18 N2         -0.7681    4.5898   -6.0467 N.am      1 <0>        -0.6819
     19 C14        -1.7467    4.4439   -6.9619 C.2       1 <0>         0.5388
     20 O3         -2.7137    3.7560   -6.7113 O.2       1 <0>        -0.5020
     21 C15        -1.6393    5.1354   -8.2966 C.3       1 <0>        -0.1483
     22 S2         -3.0972    4.7467   -9.2964 S.3       1 <0>         0.0871
     23 C16        -2.7184    5.6573  -10.7566 C.2       1 <0>         0.1196
     24 N3         -1.6469    6.3925  -10.9617 N.2       1 <0>        -0.2773
     25 N4         -1.6883    6.9143  -12.1354 N.2       1 <0>        -0.2414
     26 C17        -2.7917    6.5520  -12.7479 C.2       1 <0>         0.1874
     27 N5         -3.4846    5.7359  -11.8830 N.pl3     1 <0>        -0.2004
     28 N6         -4.6884    5.1300  -12.1061 N.3       1 <0>        -0.7638
     29 C18        -3.2103    6.9457  -14.1093 C.ar      1 <0>         0.0413
     30 C19        -2.2888    7.4770  -15.0202 C.ar      1 <0>        -0.1324
     31 C20        -2.7217    7.8258  -16.2820 C.ar      1 <0>         0.1139
     32 N7         -3.9855    7.6750  -16.6308 N.ar      1 <0>        -0.4772
     33 C21        -4.8872    7.1836  -15.8020 C.ar      1 <0>         0.1148
     34 C22        -4.5406    6.8034  -14.5226 C.ar      1 <0>        -0.1753
     35 H1          3.0199   -0.7248   -1.8183 H         1 <0>         0.0699
     36 H2          1.3470   -0.2708   -2.2893 H         1 <0>         0.0705
     37 H3          1.6670   -0.9540   -0.6591 H         1 <0>         0.0698
     38 H4          4.3870    1.0634   -1.3377 H         1 <0>         0.1257
     39 H5          4.7570    3.3329   -0.4614 H         1 <0>         0.1245
     40 H6          2.8730    4.6275    0.4509 H         1 <0>         0.1288
     41 H7          0.6110    3.6589    0.4804 H         1 <0>         0.1589
     42 H8         -0.1869    0.1761   -0.1963 H         1 <0>         0.4530
     43 H9         -0.1517    4.6431   -1.5401 H         1 <0>         0.1446
     44 H10         0.1117    5.6295   -3.7795 H         1 <0>         0.1391
     45 H11        -1.9683    2.3023   -5.4793 H         1 <0>         0.1492
     46 H12        -2.2189    1.3201   -3.2366 H         1 <0>         0.1441
     47 H13         0.1439    5.1496   -6.3012 H         1 <0>         0.4466
     48 H14        -1.5797    6.2229   -8.1424 H         1 <0>         0.1365
     49 H15        -0.7345    4.7888   -8.8174 H         1 <0>         0.1363
     50 H16        -5.2079    5.2752  -13.0647 H         1 <0>         0.4459
     51 H17        -5.1382    4.4969  -11.3271 H         1 <0>         0.4489
     52 H18        -1.2540    7.6075  -14.7400 H         1 <0>         0.1516
     53 H19        -2.0178    8.2323  -16.9932 H         1 <0>         0.1682
     54 H20        -5.9108    7.0781  -16.1300 H         1 <0>         0.1655
     55 H21        -5.2838    6.4017  -13.8498 H         1 <0>         0.1338
@<TRIPOS>BOND
     1    1    2 1
     2    1   35 1
     3    1   36 1
     4    1   37 1
     5    2    7 ar
     6    2    3 ar
     7    3    4 ar
     8    3   38 1
     9    4    5 ar
    10    4   39 1
    11    5    6 ar
    12    5   40 1
    13    6    7 ar
    14    6   41 1
    15    7    8 1
    16    8    9 1
    17    8   42 1
    18    9   10 2
    19    9   11 2
    20    9   12 1
    21   12   17 ar
    22   12   13 ar
    23   13   14 ar
    24   13   43 1
    25   14   15 ar
    26   14   44 1
    27   15   16 ar
    28   15   18 1
    29   16   17 ar
    30   16   45 1
    31   17   46 1
    32   18   19 am
    33   18   47 1
    34   19   20 2
    35   19   21 1
    36   21   22 1
    37   21   48 1
    38   21   49 1
    39   22   23 1
    40   23   27 1
    41   23   24 2
    42   24   25 1
    43   25   26 2
    44   26   27 1
    45   26   29 1
    46   27   28 1
    47   28   50 1
    48   28   51 1
    49   29   34 ar
    50   29   30 ar
    51   30   31 ar
    52   30   52 1
    53   31   32 ar
    54   31   53 1
    55   32   33 ar
    56   33   34 ar
    57   33   54 1
    58   34   55 1
