@<TRIPOS>MOLECULE
ZINC19974020
   36    38     0     0     0
SMALL
USER_CHARGES
(3S,5S)-3-[(4-amino-1,2,5-oxadiazol-3-yl)amino]-5-(4-chlorophenyl)cyclohexan-1-one
@<TRIPOS>ATOM
      1 C1          1.1476    3.8220    0.0117 C.ar      1 <0>        -0.1007
      2 C2          1.1670    2.4400    0.0040 C.ar      1 <0>        -0.1068
      3 C3         -0.0215    1.7317    0.0116 C.ar      1 <0>        -0.0347
      4 C4         -1.2287    2.4074    0.0210 C.ar      1 <0>        -0.1062
      5 C5         -1.2468    3.7894    0.0344 C.ar      1 <0>        -0.1002
      6 C6         -0.0590    4.4966    0.0264 C.ar      1 <0>        -0.0781
      7 C7         -0.0794    6.0034    0.0342 C.3       1 <0>        -0.0365
      8 H1          0.9583    6.3681    0.0253 H         1 <0>         0.0815
      9 C8         -0.8189    6.5100   -1.2051 C.3       1 <0>        -0.1260
     10 C9         -0.7673    8.0380   -1.2513 C.3       1 <0>         0.1688
     11 H2         -1.2038    8.4119   -2.1892 H         1 <0>         0.1045
     12 C10        -1.5121    8.6094   -0.0402 C.3       1 <0>        -0.1907
     13 C11        -0.9247    8.0035    1.2152 C.2       1 <0>         0.3641
     14 O1         -0.5663    8.7037    2.1315 O.2       1 <0>        -0.4464
     15 C12        -0.7983    6.4982    1.2937 C.3       1 <0>        -0.1668
     16 N1          0.6288    8.4809   -1.2199 N.pl3     1 <0>        -0.7089
     17 C13         0.9790    9.7151   -1.7567 C.2       1 <0>         0.3242
     18 C14         2.3302   10.2859   -1.7886 C.2       1 <0>         0.3311
     19 N2          2.2692   11.4509   -2.3714 N.2       1 <0>        -0.3587
     20 O2          0.9184   11.6900   -2.7249 O.3       1 <0>         0.0090
     21 N3          0.1617   10.5656   -2.3128 N.2       1 <0>        -0.3501
     22 N4          3.4800    9.6853   -1.2873 N.pl3     1 <0>        -0.8436
     23 Cl1         0.0021   -0.0041    0.0020 Cl        1 <0>        -0.0662
     24 H3          2.0753    4.3750    0.0058 H         1 <0>         0.1323
     25 H4          2.1097    1.9131   -0.0082 H         1 <0>         0.1350
     26 H5         -2.1568    1.8551    0.0223 H         1 <0>         0.1354
     27 H6         -2.1891    4.3169    0.0463 H         1 <0>         0.1335
     28 H7         -0.3419    6.1027   -2.1087 H         1 <0>         0.0879
     29 H8         -1.8683    6.1827   -1.1652 H         1 <0>         0.0950
     30 H9         -1.3941    9.7029   -0.0197 H         1 <0>         0.0969
     31 H10        -2.5802    8.3572   -0.1141 H         1 <0>         0.1154
     32 H11        -1.7969    6.0403    1.3496 H         1 <0>         0.1072
     33 H12        -0.2155    6.2166    2.1831 H         1 <0>         0.0962
     34 H13         1.4001    7.8372   -0.7717 H         1 <0>         0.4272
     35 H14         4.4481   10.2022   -1.3627 H         1 <0>         0.4427
     36 H15         3.4214    8.6934   -0.8154 H         1 <0>         0.4326
@<TRIPOS>BOND
     1    1    6 ar
     2    1    2 ar
     3    1   24 1
     4    2    3 ar
     5    2   25 1
     6    3    4 ar
     7    3   23 1
     8    4    5 ar
     9    4   26 1
    10    5    6 ar
    11    5   27 1
    12    6    7 1
    13    7    8 1
    14    7   15 1
    15    7    9 1
    16    9   10 1
    17    9   28 1
    18    9   29 1
    19   10   11 1
    20   10   12 1
    21   10   16 1
    22   12   13 1
    23   12   30 1
    24   12   31 1
    25   13   14 2
    26   13   15 1
    27   15   32 1
    28   15   33 1
    29   16   17 1
    30   16   34 1
    31   17   21 2
    32   17   18 1
    33   18   19 2
    34   18   22 1
    35   19   20 1
    36   20   21 1
    37   22   35 1
    38   22   36 1
