@<TRIPOS>MOLECULE
ZINC31829185
   47    50     0     0     0
SMALL
USER_CHARGES
2-(4-oxo-5-phenyl-thieno[2,3-d]pyrimidin-3-yl)-N-(p-tolylmethyleneamino)acetamide
@<TRIPOS>ATOM
      1 C1         -1.2502    8.7633   -0.0353 C.3       1 <0>        -0.1243
      2 C2         -0.0950    7.7958   -0.0523 C.ar      1 <0>        -0.0676
      3 C3         -0.3240    6.4463    0.1501 C.ar      1 <0>        -0.1134
      4 C4          0.7286    5.5550    0.1363 C.ar      1 <0>        -0.1345
      5 C5          2.0282    6.0177   -0.0831 C.ar      1 <0>        -0.1092
      6 C6          2.2526    7.3820   -0.2820 C.ar      1 <0>        -0.0814
      7 C7          1.1898    8.2612   -0.2699 C.ar      1 <0>        -0.1165
      8 C8          3.1590    5.0709   -0.0988 C.2       1 <0>         0.1149
      9 N1          2.9356    3.7948   -0.1707 N.2       1 <0>        -0.2247
     10 N2          1.7171    3.3243   -0.6774 N.am      1 <0>        -0.5946
     11 C9          1.4350    2.0069   -0.6391 C.2       1 <0>         0.5125
     12 O1          2.2362    1.2286   -0.1660 O.2       1 <0>        -0.4906
     13 C10         0.1243    1.5009   -1.1841 C.3       1 <0>         0.0735
     14 N3          0.0593    0.0458   -1.0270 N.am      1 <0>        -0.5158
     15 C11         0.5208   -0.7524   -2.0236 C.2       1 <0>         0.3976
     16 N4          0.4849   -2.0536   -1.9178 N.2       1 <0>        -0.4867
     17 C12        -0.0158   -2.6396   -0.8334 C.2       1 <0>         0.1047
     18 C13        -0.5214   -1.8962    0.2455 C.2       1 <0>        -0.2368
     19 C14        -0.4617   -0.4734    0.1001 C.2       1 <0>         0.5578
     20 O2         -0.8767    0.2569    0.9835 O.2       1 <0>        -0.5068
     21 C15        -1.0330   -2.6895    1.3567 C.2       1 <0>        -0.0154
     22 C16        -0.9845   -4.0408    1.2693 C.2       1 <0>        -0.1810
     23 S1         -0.2417   -4.3246   -0.3260 S.3       1 <0>         0.1576
     24 C17        -1.5959   -2.0302    2.5591 C.ar      1 <0>        -0.0447
     25 C18        -0.8797   -1.0235    3.2052 C.ar      1 <0>        -0.0573
     26 C19        -1.4115   -0.4094    4.3207 C.ar      1 <0>        -0.1235
     27 C20        -2.6475   -0.7988    4.8049 C.ar      1 <0>        -0.1124
     28 C21        -3.3602   -1.8010    4.1713 C.ar      1 <0>        -0.1276
     29 C22        -2.8411   -2.4184    3.0517 C.ar      1 <0>        -0.1024
     30 H1         -2.1853    8.2145    0.1502 H         1 <0>         0.0687
     31 H2         -1.3127    9.2768   -1.0061 H         1 <0>         0.0750
     32 H3         -1.0958    9.5048    0.7624 H         1 <0>         0.0750
     33 H4         -1.3294    6.0900    0.3197 H         1 <0>         0.1291
     34 H5          0.5485    4.5021    0.2952 H         1 <0>         0.1371
     35 H6          3.2553    7.7472   -0.4478 H         1 <0>         0.1341
     36 H7          1.3614    9.3159   -0.4268 H         1 <0>         0.1297
     37 H8          4.1917    5.4466   -0.0496 H         1 <0>         0.1920
     38 H9          0.9906    4.0301   -1.1065 H         1 <0>         0.4151
     39 H10        -0.7061    1.9667   -0.6332 H         1 <0>         0.1388
     40 H11         0.0468    1.7584   -2.2507 H         1 <0>         0.1368
     41 H12         0.9285   -0.3035   -2.9174 H         1 <0>         0.2166
     42 H13        -1.3160   -4.7708    1.9929 H         1 <0>         0.1998
     43 H14         0.0873   -0.7219    2.8307 H         1 <0>         0.1161
     44 H15        -0.8596    0.3736    4.8194 H         1 <0>         0.1198
     45 H16        -3.0578   -0.3182    5.6807 H         1 <0>         0.1206
     46 H17        -4.3248   -2.1006    4.5536 H         1 <0>         0.1229
     47 H18        -3.3986   -3.2005    2.5577 H         1 <0>         0.1219
@<TRIPOS>BOND
     1    1    2 1
     2    1   30 1
     3    1   31 1
     4    1   32 1
     5    2    7 ar
     6    2    3 ar
     7    3    4 ar
     8    3   33 1
     9    4    5 ar
    10    4   34 1
    11    5    6 ar
    12    5    8 1
    13    6    7 ar
    14    6   35 1
    15    7   36 1
    16    8    9 2
    17    8   37 1
    18    9   10 1
    19   10   11 am
    20   10   38 1
    21   11   12 2
    22   11   13 1
    23   13   14 1
    24   13   39 1
    25   13   40 1
    26   14   19 am
    27   14   15 1
    28   15   16 2
    29   15   41 1
    30   16   17 1
    31   17   23 1
    32   17   18 2
    33   18   19 1
    34   18   21 1
    35   19   20 2
    36   21   22 2
    37   21   24 1
    38   22   23 1
    39   22   42 1
    40   24   29 ar
    41   24   25 ar
    42   25   26 ar
    43   25   43 1
    44   26   27 ar
    45   26   44 1
    46   27   28 ar
    47   27   45 1
    48   28   29 ar
    49   28   46 1
    50   29   47 1
