@<TRIPOS>MOLECULE
ZINC09499166
   55    58     0     0     0
SMALL
USER_CHARGES
1-[(1,5-dimethyl-3-oxo-2-phenyl-pyrazol-4-yl)carbamoyl]ethyl 2-oxo-1H-quinoline-4-carboxylate
@<TRIPOS>ATOM
      1 C1         -1.2372    3.7946   -1.8319 C.3       1 <0>        -0.0998
      2 C2         -0.6063    2.8773   -0.8163 C.2       1 <0>         0.1867
      3 C3         -1.2398    1.8903   -0.1438 C.2       1 <0>        -0.0866
      4 C4         -0.2527    1.2612    0.7343 C.2       1 <0>         0.5459
      5 O1         -0.4492    0.3339    1.4990 O.2       1 <0>        -0.5108
      6 N1          0.9179    1.9003    0.5308 N.am      1 <0>        -0.3651
      7 N2          0.7064    2.8997   -0.4258 N.pl3     1 <0>        -0.3918
      8 C5          1.7266    3.8224   -0.9298 C.3       1 <0>         0.0979
      9 C6          2.1310    1.6139    1.1648 C.ar      1 <0>         0.1478
     10 C7          3.2936    1.4830    0.4162 C.ar      1 <0>        -0.1281
     11 C8          4.4909    1.2052    1.0460 C.ar      1 <0>        -0.1021
     12 C9          4.5311    1.0461    2.4191 C.ar      1 <0>        -0.1167
     13 C10         3.3744    1.1706    3.1667 C.ar      1 <0>        -0.0988
     14 C11         2.1748    1.4539    2.5438 C.ar      1 <0>        -0.1032
     15 N3         -2.5984    1.5362   -0.2632 N.am      1 <0>        -0.6301
     16 C12        -2.9395    0.2752   -0.5951 C.2       1 <0>         0.5191
     17 O2         -2.0786   -0.5316   -0.8777 O.2       1 <0>        -0.4907
     18 C13        -4.3901   -0.1325   -0.6153 C.3       1 <0>         0.0693
     19 H1         -4.9309    0.4842   -1.3332 H         1 <0>         0.1178
     20 C14        -4.9931    0.0589    0.7778 C.3       1 <0>        -0.1681
     21 O3         -4.4952   -1.5285   -1.0005 O.3       1 <0>        -0.3132
     22 C15        -5.6113   -1.8994   -1.6565 C.2       1 <0>         0.5131
     23 O4         -6.4729   -1.0797   -1.9001 O.2       1 <0>        -0.4829
     24 C16        -5.7877   -3.3086   -2.0811 C.2       1 <0>        -0.0280
     25 C17        -6.8555   -3.6781   -2.8483 C.2       1 <0>        -0.1154
     26 C18        -6.9984   -5.0742   -3.2564 C.2       1 <0>         0.5360
     27 O5         -7.9475   -5.4037   -3.9452 O.2       1 <0>        -0.5171
     28 N4         -6.1013   -6.0012   -2.8780 N.am      1 <0>        -0.6249
     29 H2         -6.2218   -6.9217   -3.1592 H         1 <0>         0.4202
     30 C19        -5.0135   -5.6701   -2.0988 C.ar      1 <0>         0.1819
     31 C20        -4.8198   -4.3414   -1.6805 C.ar      1 <0>        -0.1181
     32 C21        -3.7139   -4.0149   -0.8905 C.ar      1 <0>        -0.0531
     33 C22        -2.8262   -4.9883   -0.5283 C.ar      1 <0>        -0.1426
     34 C23        -3.0132   -6.3011   -0.9383 C.ar      1 <0>        -0.0597
     35 C24        -4.0962   -6.6458   -1.7173 C.ar      1 <0>        -0.1649
     36 H3         -1.1558    3.3496   -2.8236 H         1 <0>         0.0948
     37 H4         -2.2886    3.9419   -1.5850 H         1 <0>         0.0944
     38 H5         -0.7236    4.7560   -1.8219 H         1 <0>         0.0823
     39 H6          2.2510    3.3620   -1.7672 H         1 <0>         0.0742
     40 H7          1.2501    4.7446   -1.2623 H         1 <0>         0.1007
     41 H8          2.4379    4.0470   -0.1350 H         1 <0>         0.0857
     42 H9          3.2621    1.6028   -0.6567 H         1 <0>         0.1260
     43 H10         5.3961    1.1078    0.4650 H         1 <0>         0.1323
     44 H11         5.4679    0.8245    2.9087 H         1 <0>         0.1307
     45 H12         3.4093    1.0464    4.2390 H         1 <0>         0.1341
     46 H13         1.2719    1.5513    3.1283 H         1 <0>         0.1310
     47 H14        -3.2882    2.1999   -0.1065 H         1 <0>         0.4068
     48 H15        -6.0424   -0.2360    0.7632 H         1 <0>         0.0786
     49 H16        -4.4523   -0.5577    1.4956 H         1 <0>         0.0787
     50 H17        -4.9142    1.1069    1.0669 H         1 <0>         0.0846
     51 H18        -7.5859   -2.9438   -3.1545 H         1 <0>         0.1732
     52 H19        -3.5614   -2.9957   -0.5675 H         1 <0>         0.1642
     53 H20        -1.9722   -4.7342    0.0821 H         1 <0>         0.1333
     54 H21        -2.3034   -7.0598   -0.6435 H         1 <0>         0.1342
     55 H22        -4.2333   -7.6700   -2.0310 H         1 <0>         0.1366
@<TRIPOS>BOND
     1    1    2 1
     2    1   36 1
     3    1   37 1
     4    1   38 1
     5    2    7 1
     6    2    3 2
     7    3    4 1
     8    3   15 1
     9    4    5 2
    10    4    6 am
    11    6    7 1
    12    6    9 1
    13    7    8 1
    14    8   39 1
    15    8   40 1
    16    8   41 1
    17    9   14 ar
    18    9   10 ar
    19   10   11 ar
    20   10   42 1
    21   11   12 ar
    22   11   43 1
    23   12   13 ar
    24   12   44 1
    25   13   14 ar
    26   13   45 1
    27   14   46 1
    28   15   16 am
    29   15   47 1
    30   16   17 2
    31   16   18 1
    32   18   19 1
    33   18   20 1
    34   18   21 1
    35   20   48 1
    36   20   49 1
    37   20   50 1
    38   21   22 1
    39   22   23 2
    40   22   24 1
    41   24   31 1
    42   24   25 2
    43   25   26 1
    44   25   51 1
    45   26   27 2
    46   26   28 am
    47   28   29 1
    48   28   30 1
    49   30   35 ar
    50   30   31 ar
    51   31   32 ar
    52   32   33 ar
    53   32   52 1
    54   33   34 ar
    55   33   53 1
    56   34   35 ar
    57   34   54 1
    58   35   55 1
