@<TRIPOS>MOLECULE
ZINC08993832
   61    64     0     0     0
SMALL
USER_CHARGES
N-(4-methyl-2,5-dioxo-4-phenethyl-imidazolidin-1-yl)-2-[methyl-[(4-oxo-3H-quinazolin-2-yl)methyl]amino]-acetamide
@<TRIPOS>ATOM
      1 C1         -8.6434   -2.8656    0.1082 C.3       1 <0>        -0.1563
      2 C2         -8.7582   -1.5521   -0.6680 C.3       1 <0>         0.1378
      3 C3         -7.9430   -0.4638    0.0019 C.2       1 <0>         0.5345
      4 O1         -8.0929   -0.0198    1.1200 O.2       1 <0>        -0.4375
      5 N1         -7.0164   -0.0930   -0.9038 N.am      1 <0>        -0.3795
      6 C4         -7.1348   -0.7851   -2.0426 C.2       1 <0>         0.7091
      7 O2         -6.4144   -0.6253   -3.0083 O.2       1 <0>        -0.5238
      8 N2         -8.1381   -1.6801   -1.9981 N.am      1 <0>        -0.7030
      9 N3         -6.0520    0.8989   -0.6822 N.am      1 <0>        -0.4826
     10 C5         -4.7707    0.5526   -0.4482 C.2       1 <0>         0.5097
     11 O3         -4.4525   -0.6175   -0.4295 O.2       1 <0>        -0.4933
     12 C6         -3.7334    1.6195   -0.2099 C.3       1 <0>        -0.0168
     13 C7         -2.4259    0.2162    1.2679 C.3       1 <0>        -0.0591
     14 C8         -1.3517    1.9909    0.0192 C.3       1 <0>         0.0551
     15 C9         -0.0155    1.2942    0.0092 C.2       1 <0>         0.3530
     16 N4          1.1088    2.0567    0.0025 N.am      1 <0>        -0.6429
     17 H1          1.0337    3.0238    0.0081 H         1 <0>         0.4251
     18 C10         2.3329    1.4793   -0.0124 C.2       1 <0>         0.5541
     19 O4          3.3485    2.1503   -0.0189 O.2       1 <0>        -0.4783
     20 C11         2.3881    0.0099   -0.0208 C.ar      1 <0>        -0.1785
     21 C12         3.5973   -0.6822   -0.0365 C.ar      1 <0>        -0.0417
     22 C13         3.5907   -2.0598   -0.0443 C.ar      1 <0>        -0.1112
     23 C14         2.3916   -2.7606   -0.0366 C.ar      1 <0>        -0.0683
     24 C15         1.1863   -2.0957   -0.0210 C.ar      1 <0>        -0.0960
     25 C16         1.1667   -0.6994   -0.0129 C.ar      1 <0>         0.1317
     26 N5          0.0021   -0.0041    0.0020 N.2       1 <0>        -0.5197
     27 C17       -10.2231   -1.1282   -0.7919 C.3       1 <0>        -0.1119
     28 C18       -11.0211   -2.2435   -1.4703 C.3       1 <0>        -0.0783
     29 C19       -12.4639   -1.8260   -1.5923 C.ar      1 <0>        -0.0922
     30 C20       -13.3579   -2.1249   -0.5812 C.ar      1 <0>        -0.1145
     31 C21       -14.6802   -1.7373   -0.6908 C.ar      1 <0>        -0.1162
     32 C22       -15.1111   -1.0605   -1.8164 C.ar      1 <0>        -0.1178
     33 C23       -14.2184   -0.7666   -2.8302 C.ar      1 <0>        -0.1171
     34 C24       -12.8948   -1.1492   -2.7180 C.ar      1 <0>        -0.1164
     35 H2         -9.0249   -2.7246    1.1195 H         1 <0>         0.0918
     36 H3         -9.2255   -3.6373   -0.3954 H         1 <0>         0.0947
     37 H4         -7.5979   -3.1706    0.1535 H         1 <0>         0.0726
     38 H5         -8.4040   -2.2884   -2.7053 H         1 <0>         0.4496
     39 H6         -6.3066    1.8347   -0.6972 H         1 <0>         0.4375
     40 H7         -4.0112    2.2075    0.6648 H         1 <0>         0.1754
     41 H8         -3.6751    2.2709   -1.0820 H         1 <0>         0.1717
     42 H9         -2.5760    0.8895    2.1118 H         1 <0>         0.1210
     43 H10        -3.2311   -0.5180    1.2410 H         1 <0>         0.1347
     44 H11        -1.4703   -0.2964    1.3776 H         1 <0>         0.1442
     45 H12        -1.4322    2.6097    0.9129 H         1 <0>         0.1686
     46 H13        -1.4405    2.6194   -0.8670 H         1 <0>         0.1648
     47 H14         4.5328   -0.1427   -0.0430 H         1 <0>         0.1468
     48 H15         4.5261   -2.5995   -0.0562 H         1 <0>         0.1446
     49 H16         2.4050   -3.8405   -0.0429 H         1 <0>         0.1446
     50 H17         0.2602   -2.6513   -0.0148 H         1 <0>         0.1448
     51 H18       -10.6323   -0.9408    0.2008 H         1 <0>         0.0990
     52 H19       -10.2890   -0.2191   -1.3896 H         1 <0>         0.0813
     53 H20       -10.6118   -2.4310   -2.4630 H         1 <0>         0.0759
     54 H21       -10.9552   -3.1526   -0.8725 H         1 <0>         0.0857
     55 H22       -13.0222   -2.6577    0.2963 H         1 <0>         0.1230
     56 H23       -15.3776   -1.9666    0.1014 H         1 <0>         0.1245
     57 H24       -16.1450   -0.7609   -1.9038 H         1 <0>         0.1239
     58 H25       -14.5550   -0.2378   -3.7096 H         1 <0>         0.1235
     59 H26       -12.1973   -0.9196   -3.5100 H         1 <0>         0.1201
     60 N6         -2.4214    0.9711   -0.0029 N.4       1 <0>        -0.3703
     61 H27        -2.2454    0.3199   -0.7770 H         1 <0>         0.4488
@<TRIPOS>BOND
     1    1    2 1
     2    1   35 1
     3    1   36 1
     4    1   37 1
     5    2    8 1
     6    2    3 1
     7    2   27 1
     8    3    4 2
     9    3    5 am
    10    5    6 am
    11    5    9 1
    12    6    7 2
    13    6    8 am
    14    8   38 1
    15    9   10 am
    16    9   39 1
    17   10   11 2
    18   10   12 1
    19   12   40 1
    20   12   41 1
    21   12   60 1
    22   13   42 1
    23   13   43 1
    24   13   44 1
    25   13   60 1
    26   14   15 1
    27   14   45 1
    28   14   46 1
    29   14   60 1
    30   15   26 2
    31   15   16 1
    32   16   17 1
    33   16   18 am
    34   18   19 2
    35   18   20 1
    36   20   25 ar
    37   20   21 ar
    38   21   22 ar
    39   21   47 1
    40   22   23 ar
    41   22   48 1
    42   23   24 ar
    43   23   49 1
    44   24   25 ar
    45   24   50 1
    46   25   26 1
    47   27   28 1
    48   27   51 1
    49   27   52 1
    50   28   29 1
    51   28   53 1
    52   28   54 1
    53   29   34 ar
    54   29   30 ar
    55   30   31 ar
    56   30   55 1
    57   31   32 ar
    58   31   56 1
    59   32   33 ar
    60   32   57 1
    61   33   34 ar
    62   33   58 1
    63   34   59 1
    64   60   61 1
