@<TRIPOS>MOLECULE
ZINC40269628
   34    36     0     0     0
SMALL
USER_CHARGES

@<TRIPOS>ATOM
      1 C1         -0.0187    1.5258    0.0104 C.3       1 <0>        -0.1395
      2 C2          0.0021   -0.0041    0.0020 C.3       1 <0>        -0.1404
      3 H1         -0.8825   -0.4839   -0.4168 H         1 <0>         0.1076
      4 C3          1.3509   -0.6911   -0.2209 C.3       1 <0>        -0.1721
      5 C4          0.7031   -0.7075    1.1659 C.3       1 <0>        -0.1678
      6 H2          0.2800   -1.6503    1.5125 H         1 <0>         0.1215
      7 C5          1.3298    0.1728    2.2491 C.3       1 <0>         0.0738
      8 H3          0.5570    0.7891    2.7085 H         1 <0>         0.1137
      9 C6          1.9665   -0.7001    3.2996 C.ar      1 <0>        -0.0811
     10 C7          3.0521   -1.4938    2.9760 C.ar      1 <0>        -0.0757
     11 C8          3.6315   -2.2904    3.9395 C.ar      1 <0>        -0.1155
     12 C9          3.1352   -2.3073    5.2452 C.ar      1 <0>         0.1352
     13 C10         2.0478   -1.5125    5.5693 C.ar      1 <0>         0.1277
     14 C11         1.4719   -0.7048    4.5857 C.ar      1 <0>        -0.1009
     15 N1          1.4804   -1.4583    6.8388 N.am      1 <0>        -0.6602
     16 C12         1.2692   -2.5009    7.6385 C.2       1 <0>         0.5281
     17 O1          0.7284   -2.3289    8.7105 O.2       1 <0>        -0.5108
     18 C13         1.6891   -3.8912    7.2368 C.3       1 <0>        -0.1628
     19 C14         3.1863   -3.9019    7.0671 C.2       1 <0>         0.5279
     20 O2          3.8607   -4.6180    7.7767 O.2       1 <0>        -0.5105
     21 N2          3.7822   -3.1406    6.1527 N.am      1 <0>        -0.6606
     22 Cl1         2.5847    1.2349    1.5089 Cl        1 <0>        -0.1570
     23 H4          1.0039    1.9031    0.0027 H         1 <0>         0.0729
     24 H5         -0.5459    1.8868   -0.8726 H         1 <0>         0.0608
     25 H6         -0.5289    1.8773    0.9072 H         1 <0>         0.0580
     26 H7          1.3536   -1.6231   -0.7861 H         1 <0>         0.0967
     27 H8          2.2234   -0.0532   -0.3616 H         1 <0>         0.1114
     28 H9          3.4446   -1.4895    1.9699 H         1 <0>         0.1397
     29 H10         4.4787   -2.9089    3.6823 H         1 <0>         0.1409
     30 H11         0.6267   -0.0803    4.8350 H         1 <0>         0.1395
     31 H12         1.2165   -0.5855    7.1695 H         1 <0>         0.4141
     32 H13         1.4021   -4.6005    8.0131 H         1 <0>         0.1436
     33 H14         1.2106   -4.1620    6.2956 H         1 <0>         0.1273
     34 H15         4.7511   -3.1691    6.1154 H         1 <0>         0.4147
@<TRIPOS>BOND
     1    1    2 1
     2    1   23 1
     3    1   24 1
     4    1   25 1
     5    2    3 1
     6    2    5 1
     7    2    4 1
     8    4    5 1
     9    4   26 1
    10    4   27 1
    11    5    6 1
    12    5    7 1
    13    7    8 1
    14    7    9 1
    15    7   22 1
    16    9   14 ar
    17    9   10 ar
    18   10   11 ar
    19   10   28 1
    20   11   12 ar
    21   11   29 1
    22   12   21 1
    23   12   13 ar
    24   13   14 ar
    25   13   15 1
    26   14   30 1
    27   15   16 am
    28   15   31 1
    29   16   17 2
    30   16   18 1
    31   18   19 1
    32   18   32 1
    33   18   33 1
    34   19   20 2
    35   19   21 am
    36   21   34 1
