@<TRIPOS>MOLECULE
ZINC20472779
   43    46     0     0     0
SMALL
USER_CHARGES
5-[(2R)-1-[2-(5-chloro-1H-benzimidazol-2-yl)acetyl]pyrrolidin-2-yl]thiophene-2-carboxamide
@<TRIPOS>ATOM
      1 C1          4.0118    2.1075   -0.0262 C.ar      1 <0>        -0.0927
      2 C2          3.4858    0.8333   -0.0274 C.ar      1 <0>        -0.0980
      3 C3          2.1098    0.6541   -0.0146 C.ar      1 <0>         0.0455
      4 C4          1.2569    1.7709   -0.0004 C.ar      1 <0>         0.0569
      5 C5          1.8058    3.0557    0.0001 C.ar      1 <0>        -0.0513
      6 C6          3.1739    3.2146   -0.0128 C.ar      1 <0>        -0.0444
      7 Cl1         3.8557    4.8111   -0.0127 Cl        1 <0>        -0.0633
      8 N1         -0.0156    1.2969    0.0092 N.2       1 <0>        -0.4567
      9 C7          0.0021   -0.0041    0.0020 C.2       1 <0>         0.3084
     10 N2          1.2856   -0.4543   -0.0126 N.pl3     1 <0>        -0.6070
     11 H1          1.7218   -1.4641   -0.0221 H         1 <0>         0.4512
     12 C8         -1.2213   -0.8840    0.0090 C.3       1 <0>        -0.0595
     13 C9         -2.0941   -0.5216    1.1828 C.2       1 <0>         0.5330
     14 O1         -1.7560    0.3641    1.9393 O.2       1 <0>        -0.4927
     15 N3         -3.2504   -1.1816    1.3920 N.am      1 <0>        -0.6233
     16 C10        -3.7796   -2.2741    0.5555 C.3       1 <0>         0.0881
     17 C11        -4.7163   -3.0745    1.4945 C.3       1 <0>        -0.1329
     18 C12        -5.3510   -1.9403    2.3420 C.3       1 <0>        -0.1193
     19 C13        -4.1899   -0.9356    2.4958 C.3       1 <0>         0.2261
     20 H2         -3.6545   -1.0478    3.4501 H         1 <0>         0.1028
     21 C14        -4.7200    0.4727    2.4135 C.2       1 <0>        -0.1559
     22 C15        -4.9553    1.3466    3.4270 C.2       1 <0>        -0.1633
     23 C16        -5.4415    2.5966    3.1348 C.2       1 <0>        -0.0676
     24 C17        -5.6745    2.8871    1.7997 C.2       1 <0>        -0.2400
     25 S1         -5.1846    1.3676    1.0033 S.3       1 <0>         0.1488
     26 C18        -6.1892    4.1210    1.1987 C.2       1 <0>         0.6103
     27 O2         -6.4756    5.0689    1.9062 O.2       1 <0>        -0.5370
     28 N4         -6.3453    4.2057   -0.1373 N.am      1 <0>        -0.8702
     29 H3          5.0829    2.2457   -0.0363 H         1 <0>         0.1415
     30 H4          4.1431   -0.0236   -0.0379 H         1 <0>         0.1333
     31 H5          1.1598    3.9211    0.0102 H         1 <0>         0.1396
     32 H6         -1.7836   -0.7376   -0.9250 H         1 <0>         0.1287
     33 H7         -0.9150   -1.9373    0.0913 H         1 <0>         0.1162
     34 H8         -4.3259   -1.8495   -0.2996 H         1 <0>         0.0743
     35 H9         -2.9464   -2.8914    0.1883 H         1 <0>         0.0813
     36 H10        -5.4507   -3.6303    0.8930 H         1 <0>         0.0917
     37 H11        -4.1208   -3.7813    2.0910 H         1 <0>         0.0819
     38 H12        -6.2101   -1.5159    1.8018 H         1 <0>         0.0863
     39 H13        -5.6892   -2.3482    3.3060 H         1 <0>         0.0945
     40 H14        -4.7589    1.0622    4.4503 H         1 <0>         0.1385
     41 H15        -5.6377    3.3208    3.9117 H         1 <0>         0.1466
     42 H16        -6.7315    5.1317   -0.5883 H         1 <0>         0.4321
     43 H17        -6.0865    3.3489   -0.7767 H         1 <0>         0.4174
@<TRIPOS>BOND
     1    1    6 ar
     2    1    2 ar
     3    1   29 1
     4    2    3 ar
     5    2   30 1
     6    3   10 1
     7    3    4 ar
     8    4    5 ar
     9    4    8 1
    10    5    6 ar
    11    5   31 1
    12    6    7 1
    13    8    9 2
    14    9   10 1
    15    9   12 1
    16   10   11 1
    17   12   13 1
    18   12   32 1
    19   12   33 1
    20   13   14 2
    21   13   15 am
    22   15   19 1
    23   15   16 1
    24   16   17 1
    25   16   34 1
    26   16   35 1
    27   17   18 1
    28   17   36 1
    29   17   37 1
    30   18   19 1
    31   18   38 1
    32   18   39 1
    33   19   20 1
    34   19   21 1
    35   21   25 1
    36   21   22 2
    37   22   23 1
    38   22   40 1
    39   23   24 2
    40   23   41 1
    41   24   25 1
    42   24   26 1
    43   26   27 2
    44   26   28 am
    45   28   42 1
    46   28   43 1
