@<TRIPOS>MOLECULE
ZINC36586914
   62    63     0     0     0
SMALL
USER_CHARGES

@<TRIPOS>ATOM
      1 C1          6.2480   -4.5283   -0.3795 C.3       1 <0>        -0.1641
      2 C2          6.6184   -4.8027   -1.8384 C.3       1 <0>         0.1704
      3 C3          8.0785   -4.4120   -2.0760 C.3       1 <0>        -0.1642
      4 C4          6.4331   -6.2911   -2.1405 C.3       1 <0>        -0.1573
      5 N1          5.7525   -4.0143   -2.7187 N.am      1 <0>        -0.7192
      6 C5          5.7481   -2.6694   -2.6313 C.2       1 <0>         0.5120
      7 O1          6.4609   -2.1118   -1.8239 O.2       1 <0>        -0.5118
      8 C6          4.8574   -1.8583   -3.5367 C.3       1 <0>         0.1892
      9 H1          3.8570   -2.2912   -3.5451 H         1 <0>         0.1049
     10 C7          5.4203   -1.8673   -4.9346 C.ar      1 <0>        -0.1459
     11 C8          6.6598   -1.2989   -5.1866 C.ar      1 <0>         0.1946
     12 C9          7.1779   -1.3072   -6.4730 C.ar      1 <0>        -0.1725
     13 C10         6.4566   -1.8843   -7.5072 C.ar      1 <0>         0.1468
     14 C11         5.2174   -2.4536   -7.2551 C.ar      1 <0>        -0.1854
     15 C12         4.7013   -2.4491   -5.9679 C.ar      1 <0>         0.1519
     16 O2          3.4892   -3.0112   -5.7199 O.3       1 <0>        -0.4961
     17 O3          6.9638   -1.8917   -8.7679 O.3       1 <0>        -0.4948
     18 O4          7.3667   -0.7333   -4.1731 O.3       1 <0>        -0.4686
     19 N2          4.7887   -0.4794   -3.0468 N.am      1 <0>        -0.6006
     20 C13         5.2391    0.5320   -3.8154 C.2       1 <0>         0.6023
     21 O5          5.1432    0.4652   -5.0256 O.2       1 <0>        -0.4978
     22 C14         5.8486    1.7203   -3.1881 C.ar      1 <0>        -0.1659
     23 C15         5.3262    2.2315   -1.9964 C.ar      1 <0>        -0.0949
     24 C16         5.8981    3.3408   -1.4134 C.ar      1 <0>        -0.1552
     25 C17         6.9913    3.9555   -2.0020 C.ar      1 <0>        -0.0987
     26 C18         7.5197    3.4615   -3.1822 C.ar      1 <0>         0.0489
     27 C19         6.9564    2.3381   -3.7802 C.ar      1 <0>         0.1612
     28 O6          7.4754    1.8470   -4.9343 O.3       1 <0>        -0.4684
     29 O7          8.5927    4.0706   -3.7544 O.3       1 <0>        -0.4900
     30 C20         4.2305   -0.1998   -1.7215 C.3       1 <0>         0.1722
     31 C21         3.7365   -1.5033   -1.0909 C.3       1 <0>        -0.1684
     32 C22         5.3114    0.4191   -0.8330 C.3       1 <0>        -0.1828
     33 C23         3.0604    0.7768   -1.8566 C.3       1 <0>        -0.1810
     34 H2          6.3800   -3.4680   -0.1644 H         1 <0>         0.0791
     35 H3          5.2078   -4.8067   -0.2103 H         1 <0>         0.0541
     36 H4          6.8922   -5.1150    0.2754 H         1 <0>         0.0636
     37 H5          8.7227   -4.9987   -1.4211 H         1 <0>         0.0642
     38 H6          8.3424   -4.6075   -3.1154 H         1 <0>         0.0526
     39 H7          8.2105   -3.3517   -1.8609 H         1 <0>         0.0776
     40 H8          5.3929   -6.5694   -1.9712 H         1 <0>         0.0630
     41 H9          6.6970   -6.4865   -3.1798 H         1 <0>         0.0622
     42 H10         7.0773   -6.8777   -1.4855 H         1 <0>         0.0746
     43 H11         5.1824   -4.4602   -3.3644 H         1 <0>         0.4019
     44 H12         8.1429   -0.8638   -6.6693 H         1 <0>         0.1355
     45 H13         4.6555   -2.9028   -8.0606 H         1 <0>         0.1357
     46 H14         2.7459   -2.3993   -5.8112 H         1 <0>         0.3952
     47 H15         7.5004   -2.6700   -8.9715 H         1 <0>         0.3932
     48 H16         7.9060   -1.3602   -3.6720 H         1 <0>         0.3855
     49 H17         4.4739    1.7568   -1.5330 H         1 <0>         0.1824
     50 H18         5.4920    3.7335   -0.4930 H         1 <0>         0.1317
     51 H19         7.4332    4.8248   -1.5378 H         1 <0>         0.1321
     52 H20         7.0860    2.2270   -5.7337 H         1 <0>         0.3924
     53 H21         9.4457    3.7243   -3.4583 H         1 <0>         0.3891
     54 H22         4.5887   -2.1466   -0.8716 H         1 <0>         0.0798
     55 H23         3.2023   -1.2805   -0.1672 H         1 <0>         0.0745
     56 H24         3.0667   -2.0116   -1.7845 H         1 <0>         0.0589
     57 H25         6.1325    0.7758   -1.4548 H         1 <0>         0.0998
     58 H26         4.8886    1.2546   -0.2751 H         1 <0>         0.0671
     59 H27         5.6831   -0.3321   -0.1362 H         1 <0>         0.0650
     60 H28         2.1475    0.2222   -2.0737 H         1 <0>         0.0697
     61 H29         2.9377    1.3280   -0.9243 H         1 <0>         0.0793
     62 H30         3.2625    1.4759   -2.6681 H         1 <0>         0.0693
@<TRIPOS>BOND
     1    1    2 1
     2    1   34 1
     3    1   35 1
     4    1   36 1
     5    2    3 1
     6    2    4 1
     7    2    5 1
     8    3   37 1
     9    3   38 1
    10    3   39 1
    11    4   40 1
    12    4   41 1
    13    4   42 1
    14    5    6 am
    15    5   43 1
    16    6    7 2
    17    6    8 1
    18    8    9 1
    19    8   10 1
    20    8   19 1
    21   10   15 ar
    22   10   11 ar
    23   11   12 ar
    24   11   18 1
    25   12   13 ar
    26   12   44 1
    27   13   14 ar
    28   13   17 1
    29   14   15 ar
    30   14   45 1
    31   15   16 1
    32   16   46 1
    33   17   47 1
    34   18   48 1
    35   19   20 am
    36   19   30 1
    37   20   21 2
    38   20   22 1
    39   22   27 ar
    40   22   23 ar
    41   23   24 ar
    42   23   49 1
    43   24   25 ar
    44   24   50 1
    45   25   26 ar
    46   25   51 1
    47   26   27 ar
    48   26   29 1
    49   27   28 1
    50   28   52 1
    51   29   53 1
    52   30   31 1
    53   30   32 1
    54   30   33 1
    55   31   54 1
    56   31   55 1
    57   31   56 1
    58   32   57 1
    59   32   58 1
    60   32   59 1
    61   33   60 1
    62   33   61 1
    63   33   62 1
