@<TRIPOS>MOLECULE
ZINC09041951
   58    61     0     0     0
SMALL
USER_CHARGES
2-(methyl-oxo-BLAHyl)-N-[(4-tert-butylphenyl)methyleneamino]acetamide
@<TRIPOS>ATOM
      1 C1         -9.0667    9.3879    2.7383 C.3       1 <0>        -0.1479
      2 C2         -7.9435    8.9587    1.7922 C.3       1 <0>        -0.0876
      3 H1         -7.3029    9.8132    1.5739 H         1 <0>         0.0796
      4 C3         -7.1151    7.8500    2.4479 C.3       1 <0>        -0.1196
      5 C4         -5.8522    7.5890    1.6262 C.3       1 <0>        -0.0592
      6 C5         -6.2520    7.3416    0.1742 C.2       1 <0>        -0.0684
      7 C6         -7.4634    7.7277   -0.2831 C.2       1 <0>        -0.1351
      8 S1         -7.4847    7.2453   -1.9884 S.3       1 <0>         0.2122
      9 C7         -5.8639    6.5255   -2.0810 C.2       1 <0>        -0.0129
     10 C8         -5.3619    6.6847   -0.7799 C.2       1 <0>        -0.1542
     11 C9         -4.0365    6.1820   -0.5540 C.2       1 <0>         0.5418
     12 O1         -3.5165    6.2744    0.5446 O.2       1 <0>        -0.5075
     13 N1         -3.3783    5.6059   -1.5781 N.am      1 <0>        -0.4268
     14 N2         -3.9703    5.5029   -2.8412 N.2       1 <0>         0.1000
     15 N3         -5.1619    5.9472   -3.0505 N.2       1 <0>        -0.1664
     16 C10        -2.0245    5.0866   -1.3684 C.3       1 <0>         0.1047
     17 C11        -2.1010    3.6457   -0.9335 C.2       1 <0>         0.5145
     18 O2         -3.1802    3.1056   -0.8109 O.2       1 <0>        -0.4867
     19 N4         -0.9702    2.9572   -0.6809 N.am      1 <0>        -0.5771
     20 N5         -1.0413    1.6177   -0.2766 N.2       1 <0>        -0.2301
     21 C12         0.0334    0.9958    0.1000 C.2       1 <0>         0.1210
     22 C13         1.1347    1.7444    0.7341 C.ar      1 <0>        -0.1128
     23 C14         0.9610    3.0853    1.0848 C.ar      1 <0>        -0.1243
     24 C15         1.9939    3.7780    1.6814 C.ar      1 <0>        -0.1163
     25 C16         3.2032    3.1506    1.9234 C.ar      1 <0>        -0.0501
     26 C17         3.3839    1.8239    1.5743 C.ar      1 <0>        -0.1138
     27 C18         2.3582    1.1175    0.9814 C.ar      1 <0>        -0.0808
     28 C19         4.3290    3.9159    2.5699 C.3       1 <0>        -0.0339
     29 C20         5.5355    3.9400    1.6293 C.3       1 <0>        -0.1396
     30 C21         3.8746    5.3491    2.8533 C.3       1 <0>        -0.1474
     31 C22         4.7199    3.2357    3.8834 C.3       1 <0>        -0.1404
     32 C23        -8.5478    8.4155    0.4888 C.3       1 <0>        -0.0388
     33 H2         -8.6364    9.7591    3.6684 H         1 <0>         0.0611
     34 H3         -9.6549   10.1769    2.2697 H         1 <0>         0.0593
     35 H4         -9.7091    8.5333    2.9508 H         1 <0>         0.0585
     36 H5         -7.7086    6.9372    2.4996 H         1 <0>         0.0682
     37 H6         -6.8346    8.1556    3.4558 H         1 <0>         0.0758
     38 H7         -5.3366    6.7120    2.0176 H         1 <0>         0.0892
     39 H8         -5.1947    8.4566    1.6813 H         1 <0>         0.0828
     40 H9         -1.5260    5.6731   -0.5966 H         1 <0>         0.1393
     41 H10        -1.4606    5.1560   -2.2986 H         1 <0>         0.1403
     42 H11        -0.1072    3.3891   -0.7790 H         1 <0>         0.3958
     43 H12         0.1234   -0.0692   -0.0548 H         1 <0>         0.1887
     44 H13         0.0191    3.5774    0.8927 H         1 <0>         0.1286
     45 H14         1.8597    4.8136    1.9569 H         1 <0>         0.1325
     46 H15         4.3305    1.3405    1.7661 H         1 <0>         0.1284
     47 H16         2.5009    0.0823    0.7087 H         1 <0>         0.1333
     48 H17         5.2570    4.4246    0.6935 H         1 <0>         0.0572
     49 H18         6.3497    4.4936    2.0969 H         1 <0>         0.0615
     50 H19         5.8592    2.9190    1.4274 H         1 <0>         0.0584
     51 H20         3.0151    5.3320    3.5234 H         1 <0>         0.0594
     52 H21         4.6888    5.9027    3.3209 H         1 <0>         0.0616
     53 H22         3.5961    5.8338    1.9175 H         1 <0>         0.0595
     54 H23         5.0436    2.2146    3.6815 H         1 <0>         0.0585
     55 H24         5.5341    3.7892    4.3510 H         1 <0>         0.0617
     56 H25         3.8603    3.2185    4.5535 H         1 <0>         0.0572
     57 H26        -8.9511    9.2397   -0.0995 H         1 <0>         0.0919
     58 H27        -9.3417    7.7051    0.7191 H         1 <0>         0.0952
@<TRIPOS>BOND
     1    1    2 1
     2    1   33 1
     3    1   34 1
     4    1   35 1
     5    2    3 1
     6    2   32 1
     7    2    4 1
     8    4    5 1
     9    4   36 1
    10    4   37 1
    11    5    6 1
    12    5   38 1
    13    5   39 1
    14    6   10 1
    15    6    7 2
    16    7    8 1
    17    7   32 1
    18    8    9 1
    19    9   15 1
    20    9   10 2
    21   10   11 1
    22   11   12 2
    23   11   13 am
    24   13   14 1
    25   13   16 1
    26   14   15 2
    27   16   17 1
    28   16   40 1
    29   16   41 1
    30   17   18 2
    31   17   19 am
    32   19   20 1
    33   19   42 1
    34   20   21 2
    35   21   22 1
    36   21   43 1
    37   22   27 ar
    38   22   23 ar
    39   23   24 ar
    40   23   44 1
    41   24   25 ar
    42   24   45 1
    43   25   26 ar
    44   25   28 1
    45   26   27 ar
    46   26   46 1
    47   27   47 1
    48   28   29 1
    49   28   30 1
    50   28   31 1
    51   29   48 1
    52   29   49 1
    53   29   50 1
    54   30   51 1
    55   30   52 1
    56   30   53 1
    57   31   54 1
    58   31   55 1
    59   31   56 1
    60   32   57 1
    61   32   58 1
