@<TRIPOS>MOLECULE
ZINC37561124
   34    36     0     0     0
SMALL
USER_CHARGES

@<TRIPOS>ATOM
      1 C1         -0.0178    1.4608    0.0101 C.3       1 <0>         0.1127
      2 N1          0.0021   -0.0041    0.0020 N.pl3     1 <0>        -0.3931
      3 C2          0.0078   -0.7908   -1.0946 C.2       1 <0>         0.0529
      4 C3          0.0280   -2.0784   -0.6813 C.2       1 <0>        -0.2781
      5 C4          0.0349   -2.0800    0.7230 C.2       1 <0>         0.3655
      6 N2          0.0245   -0.8328    1.1310 N.2       1 <0>        -0.4121
      7 N3          0.0549   -3.2137    1.5440 N.2       1 <0>        -1.0442
      8 S1          0.0605   -3.0431    3.1912 S.o2      1 <0>         2.6144
      9 O1          1.2990   -2.4359    3.5324 O.2       1 <0>        -1.0050
     10 O2         -1.1914   -2.4710    3.5445 O.2       1 <0>        -1.0070
     11 C5          0.0867   -4.6636    3.8826 C.2       1 <0>        -0.5967
     12 C6         -0.9931   -5.4234    4.1991 C.2       1 <0>         0.4819
     13 N4         -0.5613   -6.5867    4.6984 N.pl3     1 <0>        -0.5364
     14 C7          0.7657   -6.5913    4.7098 C.cat     1 <0>         0.3034
     15 N5          1.2015   -5.3975    4.1971 N.pl3     1 <0>        -0.2480
     16 C8          2.5362   -5.1380    4.0879 C.2       1 <0>         0.1077
     17 C9          3.4490   -6.0528    4.4793 C.2       1 <0>        -0.1243
     18 C10         3.0338   -7.2866    5.0053 C.2       1 <0>        -0.0238
     19 C11         1.7048   -7.5543    5.1272 C.2       1 <0>        -0.1253
     20 N6         -2.3331   -5.0515    4.0315 N.pl3     1 <0>        -0.5361
     21 N7         -3.3310   -5.9121    4.3915 N.3       1 <0>        -0.6068
     22 H1          1.0048    1.8381    0.0023 H         1 <0>         0.0619
     23 H2         -0.5450    1.8219   -0.8730 H         1 <0>         0.0764
     24 H3         -0.5280    1.8123    0.9069 H         1 <0>         0.0792
     25 H4         -0.0023   -0.4522   -2.1201 H         1 <0>         0.1613
     26 H5          0.0372   -2.9506   -1.3182 H         1 <0>         0.1344
     27 H6          2.8660   -4.1920    3.6843 H         1 <0>         0.2122
     28 H7          4.5027   -5.8346    4.3871 H         1 <0>         0.1836
     29 H8          3.7654   -8.0170    5.3178 H         1 <0>         0.1725
     30 H9          1.3738   -8.5006    5.5289 H         1 <0>         0.1756
     31 H10        -2.5525   -4.1828    3.6597 H         1 <0>         0.4542
     32 H11        -4.2384   -5.5085    4.2133 H         1 <0>         0.3878
     33 H12        -3.2309   -6.7990    3.9208 H         1 <0>         0.3418
     34 H13        -1.1284   -7.3121    5.0039 H         1 <0>         0.4574
@<TRIPOS>BOND
     1    1    2 1
     2    1   22 1
     3    1   23 1
     4    1   24 1
     5    2    6 1
     6    2    3 1
     7    3    4 2
     8    3   25 1
     9    4    5 1
    10    4   26 1
    11    5    6 2
    12    5    7 1
    13    7    8 1
    14    8    9 2
    15    8   10 2
    16    8   11 1
    17   11   15 1
    18   11   12 2
    19   12   13 1
    20   12   20 1
    21   13   14 2
    22   13   34 1
    23   14   19 1
    24   14   15 1
    25   15   16 1
    26   16   17 2
    27   16   27 1
    28   17   18 1
    29   17   28 1
    30   18   19 2
    31   18   29 1
    32   19   30 1
    33   20   21 1
    34   20   31 1
    35   21   32 1
    36   21   33 1
