@<TRIPOS>MOLECULE
ZINC59443824
   62    64     0     0     0
SMALL
USER_CHARGES

@<TRIPOS>ATOM
      1 C1         -0.0184    1.5028    0.0103 C.3       1 <0>        -0.1249
      2 C2          0.0021   -0.0041    0.0020 C.ar      1 <0>        -0.0255
      3 C3          0.0057   -0.6887   -1.1989 C.ar      1 <0>        -0.1380
      4 C4          0.0245   -2.0709   -1.2065 C.ar      1 <0>        -0.0044
      5 C5          0.0400   -2.7685   -0.0132 C.ar      1 <0>        -0.6720
      6 C6          0.0373   -2.0839    1.1877 C.ar      1 <0>        -0.0114
      7 C7          0.0229   -0.7016    1.1953 C.ar      1 <0>        -0.1407
      8 S1          0.0628   -4.5303   -0.0229 S.o2      1 <0>         2.6880
      9 O1         -0.4759   -4.9503    1.2232 O.2       1 <0>        -0.9450
     10 O2         -0.4897   -4.9367   -1.2674 O.2       1 <0>        -0.9557
     11 N1          1.6509   -4.9994   -0.0343 N.pl3     1 <0>        -0.9758
     12 C8          2.3604   -5.2138    1.2294 C.3       1 <0>         0.1317
     13 C9          2.3043   -6.6971    1.6005 C.3       1 <0>        -0.1026
     14 C10         3.0342   -6.9176    2.9004 C.ar      1 <0>        -0.0839
     15 C11         4.3868   -7.2025    2.8939 C.ar      1 <0>        -0.1159
     16 C12         5.0563   -7.4048    4.0862 C.ar      1 <0>        -0.1194
     17 C13         4.3732   -7.3218    5.2851 C.ar      1 <0>        -0.1216
     18 C14         3.0208   -7.0360    5.2917 C.ar      1 <0>        -0.1175
     19 C15         2.3522   -6.8295    4.0996 C.ar      1 <0>        -0.1132
     20 C16         2.3463   -5.2000   -1.3080 C.3       1 <0>         0.1005
     21 C17         3.0890   -3.9421   -1.6784 C.2       1 <0>         0.5024
     22 O3          3.0420   -2.9732   -0.9499 O.2       1 <0>        -0.4775
     23 N2          3.8054   -3.8936   -2.8189 N.am      1 <0>        -0.5811
     24 N3          4.4958   -2.7242   -3.1633 N.2       1 <0>        -0.2233
     25 C18         5.1857   -2.6775   -4.2616 C.2       1 <0>         0.1128
     26 C19         5.9122   -1.4470   -4.6240 C.ar      1 <0>        -0.0899
     27 C20         5.8641   -0.3314   -3.7835 C.ar      1 <0>         0.0104
     28 C21         6.5446    0.8165   -4.1262 C.ar      1 <0>        -0.2155
     29 C22         7.2774    0.8663   -5.3054 C.ar      1 <0>         0.2106
     30 C23         7.3276   -0.2396   -6.1439 C.ar      1 <0>        -0.0890
     31 C24         6.6555   -1.3944   -5.8059 C.ar      1 <0>         0.0094
     32 N4          8.1097   -0.1803   -7.3992 N.pl3     1 <0>         0.0408
     33 O4          8.1541   -1.1425   -8.1298 O.2       1 <0>        -0.1727
     34 O5          8.7041    0.8304   -7.6939 O.3       1 <0>        -0.1324
     35 O6          7.9464    2.0004   -5.6395 O.3       1 <0>        -0.2784
     36 C25         7.8518    3.1006   -4.7325 C.3       1 <0>         0.0162
     37 H1          1.0042    1.8801    0.0026 H         1 <0>         0.0786
     38 H2         -0.5455    1.8639   -0.8728 H         1 <0>         0.0720
     39 H3         -0.5286    1.8543    0.9071 H         1 <0>         0.0729
     40 H4         -0.0064   -0.1436   -2.1312 H         1 <0>         0.1285
     41 H5          0.0266   -2.6057   -2.1448 H         1 <0>         0.1297
     42 H6          0.0491   -2.6289    2.1200 H         1 <0>         0.1369
     43 H7          0.0245   -0.1667    2.1335 H         1 <0>         0.1315
     44 H8          3.4002   -4.9059    1.1191 H         1 <0>         0.0860
     45 H9          1.8884   -4.6245    2.0156 H         1 <0>         0.0890
     46 H10         1.2645   -7.0049    1.7108 H         1 <0>         0.0848
     47 H11         2.7763   -7.2864    0.8143 H         1 <0>         0.0789
     48 H12         4.9205   -7.2673    1.9572 H         1 <0>         0.1200
     49 H13         6.1130   -7.6280    4.0811 H         1 <0>         0.1214
     50 H14         4.8962   -7.4805    6.2167 H         1 <0>         0.1213
     51 H15         2.4870   -6.9715    6.2284 H         1 <0>         0.1230
     52 H16         1.2963   -6.6026    4.1049 H         1 <0>         0.1267
     53 H17         3.0533   -6.0239   -1.2101 H         1 <0>         0.1249
     54 H18         1.6196   -5.4353   -2.0856 H         1 <0>         0.1310
     55 H19         3.8430   -4.6684   -3.4014 H         1 <0>         0.3912
     56 H20         5.2275   -3.5401   -4.9101 H         1 <0>         0.1305
     57 H21         5.2941   -0.3690   -2.8669 H         1 <0>         0.1563
     58 H22         6.5081    1.6791   -3.4773 H         1 <0>         0.1567
     59 H23         6.6993   -2.2557   -6.4560 H         1 <0>         0.1662
     60 H24         8.4305    3.9400   -5.1179 H         1 <0>         0.1154
     61 H25         6.8080    3.3964   -4.6278 H         1 <0>         0.0654
     62 H26         8.2449    2.8044   -3.7599 H         1 <0>         0.0655
@<TRIPOS>BOND
     1    1    2 1
     2    1   37 1
     3    1   38 1
     4    1   39 1
     5    2    7 ar
     6    2    3 ar
     7    3    4 ar
     8    3   40 1
     9    4    5 ar
    10    4   41 1
    11    5    6 ar
    12    5    8 1
    13    6    7 ar
    14    6   42 1
    15    7   43 1
    16    8    9 2
    17    8   10 2
    18    8   11 1
    19   11   12 1
    20   11   20 1
    21   12   13 1
    22   12   44 1
    23   12   45 1
    24   13   14 1
    25   13   46 1
    26   13   47 1
    27   14   19 ar
    28   14   15 ar
    29   15   16 ar
    30   15   48 1
    31   16   17 ar
    32   16   49 1
    33   17   18 ar
    34   17   50 1
    35   18   19 ar
    36   18   51 1
    37   19   52 1
    38   20   21 1
    39   20   53 1
    40   20   54 1
    41   21   22 2
    42   21   23 am
    43   23   24 1
    44   23   55 1
    45   24   25 2
    46   25   26 1
    47   25   56 1
    48   26   31 ar
    49   26   27 ar
    50   27   28 ar
    51   27   57 1
    52   28   29 ar
    53   28   58 1
    54   29   30 ar
    55   29   35 1
    56   30   31 ar
    57   30   32 1
    58   31   59 1
    59   32   33 2
    60   32   34 1
    61   35   36 1
    62   36   60 1
    63   36   61 1
    64   36   62 1
