@<TRIPOS>MOLECULE
ZINC19800325
   55    57     0     0     0
SMALL
USER_CHARGES
1-[(3R)-3-[[4-(aminomethyl)triazol-1-yl]methyl]-1-piperidyl]-2-anilino-2-methyl-propan-1-one
@<TRIPOS>ATOM
      1 C1         -0.5208    5.0534   -0.8538 C.3       1 <0>        -0.1669
      2 C2         -1.4354    5.8823    0.0503 C.3       1 <0>         0.1693
      3 C3         -2.8923    5.6700   -0.3657 C.3       1 <0>        -0.1583
      4 C4         -1.0830    7.3416   -0.0810 C.2       1 <0>         0.5215
      5 O1         -1.8532    8.1049   -0.6241 O.2       1 <0>        -0.5310
      6 N1          0.0882    7.7985    0.4050 N.am      1 <0>        -0.6005
      7 C5          1.0965    6.8662    0.9274 C.3       1 <0>         0.0961
      8 C6          1.4806    7.2994    2.3457 C.3       1 <0>        -0.1337
      9 C7          1.9287    8.7626    2.3241 C.3       1 <0>        -0.1127
     10 C8          0.7731    9.6448    1.8459 C.3       1 <0>        -0.1162
     11 H1         -0.0882    9.5185    2.5184 H         1 <0>         0.1010
     12 C9          0.3833    9.2377    0.4168 C.3       1 <0>         0.1177
     13 C10         1.2114   11.1106    1.8567 C.3       1 <0>         0.1085
     14 N2          1.4750   11.5313    3.2350 N.pl3     1 <0>        -0.2702
     15 C11         2.6275   12.0738    3.6917 C.2       1 <0>        -0.0055
     16 C12         2.4361   12.3108    5.0105 C.2       1 <0>        -0.1092
     17 N3          1.1950   11.8998    5.2940 N.2       1 <0>        -0.2462
     18 N4          0.6522   11.4433    4.2209 N.2       1 <0>        -0.0443
     19 C13         3.4279   12.9137    5.9716 C.3       1 <0>         0.1056
     20 N5          3.1868   14.3586    6.0817 N.4       1 <0>        -0.6853
     21 N6         -1.2586    5.4606    1.4422 N.pl3     1 <0>        -0.7478
     22 C14        -1.9600    6.1074    2.4623 C.ar      1 <0>         0.2172
     23 C15        -1.9037    5.6212    3.7623 C.ar      1 <0>        -0.1921
     24 C16        -2.5981    6.2634    4.7687 C.ar      1 <0>        -0.0750
     25 C17        -3.3488    7.3892    4.4833 C.ar      1 <0>        -0.1739
     26 C18        -3.4116    7.8724    3.1892 C.ar      1 <0>        -0.0730
     27 C19        -2.7151    7.2384    2.1791 C.ar      1 <0>        -0.2092
     28 H2          0.5267    5.2061   -0.5546 H         1 <0>         0.0735
     29 H3         -0.6536    5.3700   -1.8989 H         1 <0>         0.0820
     30 H4         -0.7780    3.9882   -0.7579 H         1 <0>         0.0826
     31 H5         -3.5498    6.2660    0.2843 H         1 <0>         0.0738
     32 H6         -3.1495    4.6048   -0.2698 H         1 <0>         0.0707
     33 H7         -3.0251    5.9866   -1.4108 H         1 <0>         0.0749
     34 H8          0.6791    5.8487    0.9484 H         1 <0>         0.1058
     35 H9          1.9844    6.8849    0.2784 H         1 <0>         0.0679
     36 H10         0.6110    7.1905    3.0105 H         1 <0>         0.0765
     37 H11         2.3034    6.6678    2.7119 H         1 <0>         0.0785
     38 H12         2.2284    9.0692    3.3371 H         1 <0>         0.0566
     39 H13         2.7823    8.8746    1.6395 H         1 <0>         0.0686
     40 H14         1.2144    9.4472   -0.2727 H         1 <0>         0.0736
     41 H15        -0.5081    9.7974    0.0974 H         1 <0>         0.1001
     42 H16         2.1267   11.2240    1.2573 H         1 <0>         0.1187
     43 H17         0.4133   11.7351    1.4290 H         1 <0>         0.1164
     44 H18         3.5198   12.2783    3.1187 H         1 <0>         0.1999
     45 H19         3.3111   12.4461    6.9604 H         1 <0>         0.1448
     46 H20         4.4492   12.7395    5.6019 H         1 <0>         0.1437
     47 H21         3.9108   14.7987    6.7833 H         1 <0>         0.4628
     48 H22         2.1655   14.5328    6.4514 H         1 <0>         0.4613
     49 H23        -0.5735    4.6346    1.6839 H         1 <0>         0.4219
     50 H24        -1.3179    4.7419    3.9858 H         1 <0>         0.1184
     51 H25        -2.5550    5.8858    5.7796 H         1 <0>         0.1192
     52 H26        -3.8909    7.8894    5.2722 H         1 <0>         0.1162
     53 H27        -4.0027    8.7491    2.9689 H         1 <0>         0.1165
     54 H28        -2.7610    7.6190    1.1694 H         1 <0>         0.1350
     55 H29         3.3036   14.8262    5.0929 H         1 <0>         0.4540
@<TRIPOS>BOND
     1    1    2 1
     2    1   28 1
     3    1   29 1
     4    1   30 1
     5    2    3 1
     6    2    4 1
     7    2   21 1
     8    3   31 1
     9    3   32 1
    10    3   33 1
    11    4    5 2
    12    4    6 am
    13    6   12 1
    14    6    7 1
    15    7    8 1
    16    7   34 1
    17    7   35 1
    18    8    9 1
    19    8   36 1
    20    8   37 1
    21    9   10 1
    22    9   38 1
    23    9   39 1
    24   10   11 1
    25   10   12 1
    26   10   13 1
    27   12   40 1
    28   12   41 1
    29   13   14 1
    30   13   42 1
    31   13   43 1
    32   14   18 1
    33   14   15 1
    34   15   16 2
    35   15   44 1
    36   16   17 1
    37   16   19 1
    38   17   18 2
    39   19   20 1
    40   19   45 1
    41   19   46 1
    42   20   47 1
    43   20   48 1
    44   20   55 1
    45   21   22 1
    46   21   49 1
    47   22   27 ar
    48   22   23 ar
    49   23   24 ar
    50   23   50 1
    51   24   25 ar
    52   24   51 1
    53   25   26 ar
    54   25   52 1
    55   26   27 ar
    56   26   53 1
    57   27   54 1
