@<TRIPOS>MOLECULE
ZINC65182150
   49    52     0     0     0
SMALL
USER_CHARGES

@<TRIPOS>ATOM
      1 C1          0.3374    1.5060    0.1255 C.3       1 <0>        -0.1284
      2 C2          0.3121   -0.0007    0.1025 C.ar      1 <0>        -0.1143
      3 C3          0.2813   -0.6640   -1.1319 C.ar      1 <0>         0.0676
      4 C4          0.2574   -2.0096   -1.2362 C.ar      1 <0>        -0.2102
      5 C5          0.2623   -2.8213   -0.0684 C.ar      1 <0>         0.3331
      6 N1          0.2425   -4.1224    0.0905 N.pl3     1 <0>        -0.5841
      7 C6          0.2601   -4.4187    1.5273 C.3       1 <0>         0.0566
      8 H1          1.1483   -4.9973    1.7808 H         1 <0>         0.1802
      9 C7          0.2941   -3.0782    2.2267 C.2       1 <0>         0.0603
     10 C8          0.2947   -2.1447    1.2479 C.ar      1 <0>        -0.1598
     11 C9          0.3253   -0.6774    1.2734 C.ar      1 <0>        -0.0172
     12 C10        -1.0012   -5.1894    1.9223 C.3       1 <0>         0.2881
     13 H2         -1.8921   -4.6074    1.6863 H         1 <0>         0.1220
     14 N2         -1.0425   -6.4928    1.2403 N.pl3     1 <0>        -0.7575
     15 C11        -1.0338   -7.4561    2.2217 C.2       1 <0>         0.3367
     16 N3         -0.9936   -6.9343    3.3935 N.2       1 <0>        -0.3252
     17 O1         -0.9718   -5.5182    3.3203 O.3       1 <0>        -0.1798
     18 C12        -1.0679   -8.9389    1.9547 C.3       1 <0>        -0.0778
     19 C13        -1.0462   -9.6971    3.2834 C.3       1 <0>         0.1247
     20 N4         -1.0793  -11.1385    3.0238 N.am      1 <0>        -0.6141
     21 C14         0.1722  -11.8822    2.8602 C.3       1 <0>         0.0656
     22 C15        -2.2611  -11.7804    2.9355 C.2       1 <0>         0.5705
     23 O2         -3.2994  -11.1489    2.9648 O.2       1 <0>        -0.5169
     24 C16        -2.2947  -13.2519    2.8030 C.ar      1 <0>        -0.1932
     25 C17        -1.3420  -14.0471    3.4530 C.ar      1 <0>        -0.0325
     26 C18        -1.4170  -15.4188    3.2977 C.ar      1 <0>        -0.1603
     27 C19        -2.4225  -15.9581    2.5115 C.ar      1 <0>         0.1991
     28 N5         -3.3068  -15.1831    1.9108 N.ar      1 <0>        -0.4774
     29 C20        -3.2792  -13.8722    2.0333 C.ar      1 <0>         0.1804
     30 Cl1        -2.5208  -17.6798    2.3127 Cl        1 <0>        -0.0105
     31 H3          1.3708    1.8523    0.1097 H         1 <0>         0.0881
     32 H4         -0.1884    1.8915   -0.7480 H         1 <0>         0.0823
     33 H5         -0.1519    1.8638    1.0313 H         1 <0>         0.0828
     34 H6          0.2762   -0.0743   -2.0366 H         1 <0>         0.1630
     35 H7          0.2341   -2.4724   -2.2118 H         1 <0>         0.1627
     36 H8          0.3134   -2.9019    3.2921 H         1 <0>         0.2155
     37 H9          0.3539   -0.1461    2.2132 H         1 <0>         0.1658
     38 H10        -1.0705   -6.6436    0.2825 H         1 <0>         0.4317
     39 H11        -1.9774   -9.1889    1.4085 H         1 <0>         0.1121
     40 H12        -0.1984   -9.2212    1.3611 H         1 <0>         0.1061
     41 H13        -0.1367   -9.4470    3.8296 H         1 <0>         0.0951
     42 H14        -1.9157   -9.4147    3.8770 H         1 <0>         0.1006
     43 H15         0.5506  -12.1766    3.8392 H         1 <0>         0.0685
     44 H16        -0.0102  -12.7725    2.2584 H         1 <0>         0.0824
     45 H17         0.9075  -11.2509    2.3614 H         1 <0>         0.0759
     46 H18        -0.5684  -13.6000    4.0597 H         1 <0>         0.1570
     47 H19        -0.6993  -16.0632    3.7836 H         1 <0>         0.1573
     48 H20        -4.0227  -13.2718    1.5302 H         1 <0>         0.1759
     49 H21         0.2197   -4.7795   -0.6227 H         1 <0>         0.4516
@<TRIPOS>BOND
     1    1    2 1
     2    1   31 1
     3    1   32 1
     4    1   33 1
     5    2   11 ar
     6    2    3 ar
     7    3    4 ar
     8    3   34 1
     9    4    5 ar
    10    4   35 1
    11    5   10 ar
    12    5    6 2
    13    6    7 1
    14    6   49 1
    15    7    8 1
    16    7    9 1
    17    7   12 1
    18    9   10 2
    19    9   36 1
    20   10   11 ar
    21   11   37 1
    22   12   13 1
    23   12   17 1
    24   12   14 1
    25   14   15 1
    26   14   38 1
    27   15   16 2
    28   15   18 1
    29   16   17 1
    30   18   19 1
    31   18   39 1
    32   18   40 1
    33   19   20 1
    34   19   41 1
    35   19   42 1
    36   20   21 1
    37   20   22 am
    38   21   43 1
    39   21   44 1
    40   21   45 1
    41   22   23 2
    42   22   24 1
    43   24   29 ar
    44   24   25 ar
    45   25   26 ar
    46   25   46 1
    47   26   27 ar
    48   26   47 1
    49   27   28 ar
    50   27   30 1
    51   28   29 ar
    52   29   48 1
