@<TRIPOS>MOLECULE
ZINC03450323
   35    35     0     0     0
SMALL
USER_CHARGES
methylcarbamoylcarbamoylmethyl 4-amino-5-chloro-2-methoxy-benzoate
@<TRIPOS>ATOM
      1 C1         -6.1875    2.8404   10.8020 C.3       1 <0>         0.1019
      2 N1         -5.5506    2.1162    9.6992 N.am      1 <0>        -0.7404
      3 C2         -4.9789    2.7977    8.6867 C.2       1 <0>         0.6934
      4 O1         -4.9917    4.0130    8.6885 O.2       1 <0>        -0.5252
      5 N2         -4.3930    2.1314    7.6721 N.am      1 <0>        -0.6887
      6 C3         -3.8213    2.8129    6.6596 C.2       1 <0>         0.5179
      7 O2         -3.8341    4.0252    6.6614 O.2       1 <0>        -0.4395
      8 C4         -3.1662    2.0679    5.5252 C.3       1 <0>         0.0556
      9 O3         -2.6288    3.0186    4.5682 O.3       1 <0>        -0.3343
     10 C5         -2.0057    2.5115    3.4858 C.2       1 <0>         0.5215
     11 O4         -1.9140    1.3076    3.3457 O.2       1 <0>        -0.4923
     12 C6         -1.4368    3.4149    2.4744 C.ar      1 <0>        -0.2162
     13 C7         -1.5371    4.8020    2.6353 C.ar      1 <0>         0.0370
     14 C8         -1.0134    5.6399    1.6935 C.ar      1 <0>        -0.1633
     15 C9         -0.3719    5.1220    0.5683 C.ar      1 <0>         0.3071
     16 C10        -0.2603    3.7481    0.3971 C.ar      1 <0>        -0.3011
     17 C11        -0.7872    2.8894    1.3459 C.ar      1 <0>         0.2495
     18 O5         -0.6816    1.5467    1.1837 O.3       1 <0>        -0.2786
     19 C12        -0.0127    1.0858    0.0080 C.3       1 <0>         0.0188
     20 N3          0.1583    5.9845   -0.3855 N.pl3     1 <0>        -0.8511
     21 Cl1        -1.1469    7.3588    1.8968 Cl        1 <0>        -0.0603
     22 H1         -6.5908    2.1268   11.5204 H         1 <0>         0.0817
     23 H2         -5.4499    3.4742   11.2945 H         1 <0>         0.0631
     24 H3         -6.9955    3.4592   10.4117 H         1 <0>         0.0631
     25 H4         -5.5404    1.1463    9.6978 H         1 <0>         0.4013
     26 H5         -4.3828    1.1615    7.6707 H         1 <0>         0.4122
     27 H6         -3.9037    1.4342    5.0328 H         1 <0>         0.1098
     28 H7         -2.3581    1.4492    5.9155 H         1 <0>         0.1098
     29 H8         -2.0325    5.2096    3.5041 H         1 <0>         0.1580
     30 H9          0.2373    3.3505   -0.4751 H         1 <0>         0.1466
     31 H10         0.0021   -0.0041    0.0020 H         1 <0>         0.1066
     32 H11         1.0099    1.4631    0.0003 H         1 <0>         0.0603
     33 H12        -0.5399    1.4469   -0.8751 H         1 <0>         0.0603
     34 H13         0.6050    5.6262   -1.1684 H         1 <0>         0.4070
     35 H14         0.0813    6.9442   -0.2676 H         1 <0>         0.4082
@<TRIPOS>BOND
     1    1    2 1
     2    1   22 1
     3    1   23 1
     4    1   24 1
     5    2    3 am
     6    2   25 1
     7    3    4 2
     8    3    5 am
     9    5    6 am
    10    5   26 1
    11    6    7 2
    12    6    8 1
    13    8    9 1
    14    8   27 1
    15    8   28 1
    16    9   10 1
    17   10   11 2
    18   10   12 1
    19   12   17 ar
    20   12   13 ar
    21   13   14 ar
    22   13   29 1
    23   14   15 ar
    24   14   21 1
    25   15   16 ar
    26   15   20 1
    27   16   17 ar
    28   16   30 1
    29   17   18 1
    30   18   19 1
    31   19   31 1
    32   19   32 1
    33   19   33 1
    34   20   34 1
    35   20   35 1
