@<TRIPOS>MOLECULE
ZINC03534697
   54    57     0     0     0
SMALL
USER_CHARGES
N-(3-nitrophenyl)-2-[4-oxo-3-(tetrahydrofuran-2-ylmethyl)quinazolin-2-yl]sulfanyl-propanamide
@<TRIPOS>ATOM
      1 C1          5.0782    4.3744    1.6554 C.3       1 <0>        -0.1474
      2 C2          4.8183    4.0135    0.1915 C.3       1 <0>        -0.1211
      3 H1          4.7409    4.9261   -0.3995 H         1 <0>         0.1323
      4 C3          3.5314    3.2363    0.0865 C.2       1 <0>         0.5416
      5 O1          3.5541    2.0237    0.0800 O.2       1 <0>        -0.4993
      6 N1          2.3553    3.8888   -0.0000 N.am      1 <0>        -0.6637
      7 C4          1.1543    3.1709    0.0139 C.ar      1 <0>         0.1532
      8 C5          1.0501    2.0031    0.7585 C.ar      1 <0>        -0.0709
      9 C6         -0.1364    1.2967    0.7697 C.ar      1 <0>        -0.0937
     10 C7         -1.2184    1.7479    0.0360 C.ar      1 <0>        -0.0675
     11 C8         -1.1197    2.9131   -0.7017 C.ar      1 <0>        -0.0227
     12 C9          0.0643    3.6243   -0.7171 C.ar      1 <0>        -0.0844
     13 N2         -2.2820    3.3954   -1.4810 N.pl3     1 <0>         0.0267
     14 O2         -2.1941    4.4189   -2.1354 O.2       1 <0>        -0.1565
     15 O3         -3.3264    2.7688   -1.4678 O.3       1 <0>        -0.1518
     16 S1          6.1851    3.0045   -0.4330 S.3       1 <0>         0.1073
     17 C10         7.4980    4.1758   -0.3389 C.2       1 <0>         0.3713
     18 N3          7.2304    5.3796    0.1038 N.2       1 <0>        -0.5372
     19 C11         8.1874    6.3236    0.2065 C.ar      1 <0>         0.1724
     20 C12         7.9029    7.6067    0.6835 C.ar      1 <0>        -0.1165
     21 C13         8.9025    8.5345    0.7658 C.ar      1 <0>        -0.0674
     22 C14        10.2007    8.2226    0.3827 C.ar      1 <0>        -0.1424
     23 C15        10.5100    6.9765   -0.0882 C.ar      1 <0>        -0.0366
     24 C16         9.5096    6.0102   -0.1828 C.ar      1 <0>        -0.2039
     25 C17         9.7835    4.6555   -0.6811 C.2       1 <0>         0.5549
     26 O4         10.9017    4.3253   -1.0310 O.2       1 <0>        -0.5058
     27 N4          8.7459    3.7882   -0.7361 N.am      1 <0>        -0.5223
     28 C18         8.9630    2.4242   -1.2245 C.3       1 <0>         0.0902
     29 C19         8.7458    2.3840   -2.7385 C.3       1 <0>         0.0627
     30 H2          9.4508    3.0479   -3.2389 H         1 <0>         0.0805
     31 C20         8.9009    0.9353   -3.2657 C.3       1 <0>        -0.1463
     32 C21         8.0482    1.0006   -4.5621 C.3       1 <0>        -0.1542
     33 C22         6.9232    1.9806   -4.1653 C.3       1 <0>         0.0509
     34 O5          7.3962    2.7573   -3.0586 O.3       1 <0>        -0.3672
     35 H3          6.0090    4.9365    1.7313 H         1 <0>         0.1001
     36 H4          4.2552    4.9820    2.0315 H         1 <0>         0.0720
     37 H5          5.1557    3.4617    2.2464 H         1 <0>         0.0699
     38 H6          2.3414    4.8560   -0.0719 H         1 <0>         0.4208
     39 H7          1.8961    1.6480    1.3283 H         1 <0>         0.1548
     40 H8         -0.2180    0.3886    1.3485 H         1 <0>         0.1547
     41 H9         -2.1439    1.1913    0.0429 H         1 <0>         0.1574
     42 H10         0.1421    4.5322   -1.2968 H         1 <0>         0.1581
     43 H11         6.8981    7.8633    0.9849 H         1 <0>         0.1382
     44 H12         8.6800    9.5250    1.1346 H         1 <0>         0.1341
     45 H13        10.9742    8.9727    0.4568 H         1 <0>         0.1331
     46 H14        11.5221    6.7425   -0.3839 H         1 <0>         0.1369
     47 H15         9.9825    2.1142   -0.9953 H         1 <0>         0.1202
     48 H16         8.2597    1.7480   -0.7385 H         1 <0>         0.1043
     49 H17         9.9428    0.7090   -3.4919 H         1 <0>         0.0893
     50 H18         8.4883    0.2142   -2.5601 H         1 <0>         0.0854
     51 H19         7.6399    0.0202   -4.8077 H         1 <0>         0.0860
     52 H20         8.6311    1.3956   -5.3941 H         1 <0>         0.0780
     53 H21         6.0335    1.4232   -3.8725 H         1 <0>         0.0733
     54 H22         6.6908    2.6361   -5.0046 H         1 <0>         0.0684
@<TRIPOS>BOND
     1    1    2 1
     2    1   35 1
     3    1   36 1
     4    1   37 1
     5    2    3 1
     6    2    4 1
     7    2   16 1
     8    4    5 2
     9    4    6 am
    10    6    7 1
    11    6   38 1
    12    7   12 ar
    13    7    8 ar
    14    8    9 ar
    15    8   39 1
    16    9   10 ar
    17    9   40 1
    18   10   11 ar
    19   10   41 1
    20   11   12 ar
    21   11   13 1
    22   12   42 1
    23   13   14 2
    24   13   15 1
    25   16   17 1
    26   17   27 1
    27   17   18 2
    28   18   19 1
    29   19   24 ar
    30   19   20 ar
    31   20   21 ar
    32   20   43 1
    33   21   22 ar
    34   21   44 1
    35   22   23 ar
    36   22   45 1
    37   23   24 ar
    38   23   46 1
    39   24   25 1
    40   25   26 2
    41   25   27 am
    42   27   28 1
    43   28   29 1
    44   28   47 1
    45   28   48 1
    46   29   30 1
    47   29   34 1
    48   29   31 1
    49   31   32 1
    50   31   49 1
    51   31   50 1
    52   32   33 1
    53   32   51 1
    54   32   52 1
    55   33   34 1
    56   33   53 1
    57   33   54 1
