@<TRIPOS>MOLECULE
ZINC32921891
   54    56     0     0     0
SMALL
USER_CHARGES
(2R)-2-[(3aS,7aR)-1,3-dioxo-3a,4,7,7a-tetrahydroisoindol-2-yl]-N-[(1R)-1-[3-(methanesulfonamido)phenyl]ethyl]propanamide
@<TRIPOS>ATOM
      1 C1         -3.6408    1.0775    6.2246 C.3       1 <0>        -0.1582
      2 C2         -2.8594    0.0073    5.4598 C.3       1 <0>         0.1886
      3 H1         -1.8309   -0.0786    5.8404 H         1 <0>         0.0978
      4 C3         -2.8337    0.3555    3.9938 C.ar      1 <0>        -0.0849
      5 C4         -3.9295    0.0748    3.1979 C.ar      1 <0>        -0.1076
      6 C5         -3.9101    0.3926    1.8525 C.ar      1 <0>        -0.1037
      7 C6         -2.7976    0.9965    1.2998 C.ar      1 <0>        -0.1014
      8 C7         -1.6933    1.2746    2.0950 C.ar      1 <0>         0.1315
      9 C8         -1.7161    0.9539    3.4466 C.ar      1 <0>        -0.1083
     10 N1         -0.5646    1.8804    1.5383 N.pl3     1 <0>        -1.0801
     11 S1          0.4684    0.9963    0.5930 S.o2      1 <0>         2.6124
     12 O1          1.4865    1.9121    0.2139 O.2       1 <0>        -0.9546
     13 O2         -0.3644    0.3922   -0.3872 O.2       1 <0>        -0.9512
     14 C9          1.1473   -0.2689    1.7016 C.3       1 <0>        -0.6743
     15 N2         -3.5076   -1.2939    5.6415 N.am      1 <0>        -0.7338
     16 C10        -3.2223   -2.0436    6.7246 C.2       1 <0>         0.5119
     17 O3         -2.4290   -1.6410    7.5488 O.2       1 <0>        -0.5159
     18 C11        -3.8891   -3.3820    6.9114 C.3       1 <0>         0.1084
     19 H2         -4.9770   -3.2468    7.0022 H         1 <0>         0.1303
     20 C12        -3.5451   -4.2924    5.7308 C.3       1 <0>        -0.1635
     21 N3         -3.4147   -3.9946    8.1548 N.am      1 <0>        -0.5698
     22 C13        -4.2340   -4.3192    9.1734 C.2       1 <0>         0.5378
     23 O4         -5.4455   -4.3490    9.1406 O.2       1 <0>        -0.4734
     24 C14        -3.3459   -4.6455   10.3857 C.3       1 <0>        -0.0952
     25 H3         -3.7080   -5.3619   11.1378 H         1 <0>         0.1406
     26 C15        -3.1082   -3.2973   11.0706 C.3       1 <0>        -0.0933
     27 C16        -1.7555   -3.1759   11.6820 C.2       1 <0>        -0.1526
     28 C17        -0.7462   -3.9301   11.3983 C.2       1 <0>        -0.1506
     29 C18        -0.8207   -5.0745   10.4376 C.3       1 <0>        -0.0823
     30 C19        -2.0830   -5.1083    9.6410 C.3       1 <0>        -0.1401
     31 H4         -2.0559   -6.1834    9.4099 H         1 <0>         0.1252
     32 C20        -2.1155   -4.2909    8.3822 C.2       1 <0>         0.5513
     33 O5         -1.1651   -3.9604    7.7061 O.2       1 <0>        -0.4497
     34 H5         -3.6595    0.8233    7.2947 H         1 <0>         0.0651
     35 H6         -4.6706    1.1241    5.8407 H         1 <0>         0.0624
     36 H7         -3.1541    2.0545    6.0883 H         1 <0>         0.0696
     37 H8         -4.8021   -0.3940    3.6283 H         1 <0>         0.1260
     38 H9         -4.7674    0.1720    1.2338 H         1 <0>         0.1331
     39 H10        -2.7848    1.2485    0.2497 H         1 <0>         0.1373
     40 H11        -0.8608    1.1728    4.0687 H         1 <0>         0.1313
     41 H12        -0.3619    2.9448    1.7278 H         1 <0>         0.4524
     42 H13         1.8507   -0.9052    1.1446 H         1 <0>         0.1329
     43 H14         0.3282   -0.8872    2.0976 H         1 <0>         0.1282
     44 H15         1.6746    0.2185    2.5349 H         1 <0>         0.1312
     45 H16        -4.2272   -1.6591    4.8939 H         1 <0>         0.4188
     46 H17        -4.0319   -5.2694    5.8672 H         1 <0>         0.0774
     47 H18        -2.4549   -4.4299    5.6793 H         1 <0>         0.0772
     48 H19        -3.9012   -3.8324    4.7972 H         1 <0>         0.0830
     49 H20        -3.2115   -2.4880   10.3328 H         1 <0>         0.0802
     50 H21        -3.8475   -3.1583   11.8732 H         1 <0>         0.0909
     51 H22        -1.6497   -2.3721   12.4255 H         1 <0>         0.1130
     52 H23         0.2292   -3.7448   11.8719 H         1 <0>         0.1159
     53 H24         0.0146   -5.0098    9.7248 H         1 <0>         0.0916
     54 H25        -0.7575   -6.0228   10.9914 H         1 <0>         0.0912
@<TRIPOS>BOND
     1    1    2 1
     2    1   34 1
     3    1   35 1
     4    1   36 1
     5    2    3 1
     6    2    4 1
     7    2   15 1
     8    4    9 ar
     9    4    5 ar
    10    5    6 ar
    11    5   37 1
    12    6    7 ar
    13    6   38 1
    14    7    8 ar
    15    7   39 1
    16    8    9 ar
    17    8   10 1
    18    9   40 1
    19   10   11 1
    20   10   41 1
    21   11   12 2
    22   11   13 2
    23   11   14 1
    24   14   42 1
    25   14   43 1
    26   14   44 1
    27   15   16 am
    28   15   45 1
    29   16   17 2
    30   16   18 1
    31   18   19 1
    32   18   20 1
    33   18   21 1
    34   20   46 1
    35   20   47 1
    36   20   48 1
    37   21   32 am
    38   21   22 am
    39   22   23 2
    40   22   24 1
    41   24   25 1
    42   24   30 1
    43   24   26 1
    44   26   27 1
    45   26   49 1
    46   26   50 1
    47   27   28 2
    48   27   51 1
    49   28   29 1
    50   28   52 1
    51   29   30 1
    52   29   53 1
    53   29   54 1
    54   30   31 1
    55   30   32 1
    56   32   33 2
