@<TRIPOS>MOLECULE
ZINC02279524
   44    48     0     0     0
SMALL
USER_CHARGES
N'-(1H-benzoimidazol-2-yl)-4a,10a-dihydrophenothiazine-10-carbohydrazide
@<TRIPOS>ATOM
      1 C1          0.6296   -0.0864   -7.7400 C.ar      1 <0>        -0.1070
      2 C2          0.6684    1.0940   -8.4673 C.ar      1 <0>        -0.1186
      3 C3          0.5609    2.3104   -7.8313 C.ar      1 <0>        -0.0742
      4 C4          0.4106    2.3567   -6.4431 C.ar      1 <0>         0.0750
      5 C5          0.3720    1.1583   -5.7116 C.ar      1 <0>         0.0520
      6 C6          0.4822   -0.0577   -6.3686 C.ar      1 <0>        -0.1049
      7 N1          0.2177    1.5223   -4.3838 N.pl3     1 <0>        -0.6118
      8 H1          0.1545    0.9017   -3.6022 H         1 <0>         0.4287
      9 C7          0.1680    2.8862   -4.3411 C.2       1 <0>         0.5193
     10 N2          0.2758    3.3738   -5.5518 N.2       1 <0>        -0.5203
     11 N3          0.0203    3.6380   -3.1945 N.pl3     1 <0>        -0.5058
     12 N4         -0.0292    5.0358   -3.2749 N.am      1 <0>        -0.4926
     13 C8         -1.0738    5.7045   -2.7477 C.2       1 <0>         0.7164
     14 O1         -1.0855    6.9204   -2.7588 O.2       1 <0>        -0.5329
     15 N5         -2.1055    5.0257   -2.2081 N.am      1 <0>        -0.5532
     16 C9         -2.9653    5.7129   -1.3491 C.ar      1 <0>         0.1643
     17 C10        -2.5279    6.9178   -0.8049 C.ar      1 <0>        -0.1273
     18 C11        -3.3453    7.6399    0.0410 C.ar      1 <0>        -0.0963
     19 C12        -4.6085    7.1724    0.3543 C.ar      1 <0>        -0.1227
     20 C13        -5.0520    5.9771   -0.1762 C.ar      1 <0>        -0.0777
     21 C14        -4.2322    5.2402   -1.0236 C.ar      1 <0>        -0.1155
     22 S1         -4.8188    3.7041   -1.6594 S.3       1 <0>        -0.0994
     23 C15        -3.6876    3.3490   -3.0404 C.3       1 <0>        -0.0539
     24 H2         -3.9289    3.9631   -3.9081 H         1 <0>         0.1124
     25 C16        -2.2559    3.6245   -2.5555 C.3       1 <0>         0.1121
     26 H3         -1.5702    3.3882   -3.3691 H         1 <0>         0.1653
     27 C17        -1.9520    2.7260   -1.3882 C.2       1 <0>        -0.1843
     28 C18        -2.4004    1.4706   -1.4089 C.2       1 <0>        -0.0924
     29 C19        -3.1659    0.9971   -2.5755 C.2       1 <0>        -0.1125
     30 C20        -3.7839    1.8727   -3.3636 C.2       1 <0>        -0.1222
     31 H4          0.7157   -1.0342   -8.2506 H         1 <0>         0.1314
     32 H5          0.7842    1.0587   -9.5405 H         1 <0>         0.1310
     33 H6          0.5919    3.2257   -8.4037 H         1 <0>         0.1300
     34 H7          0.4523   -0.9804   -5.8080 H         1 <0>         0.1237
     35 H8         -0.0493    3.1990   -2.3323 H         1 <0>         0.4372
     36 H9          0.6884    5.5223   -3.7100 H         1 <0>         0.4428
     37 H10        -1.5429    7.2893   -1.0459 H         1 <0>         0.1555
     38 H11        -2.9975    8.5729    0.4591 H         1 <0>         0.1301
     39 H12        -5.2474    7.7414    1.0135 H         1 <0>         0.1303
     40 H13        -6.0390    5.6133    0.0681 H         1 <0>         0.1312
     41 H14        -1.3807    3.0915   -0.5477 H         1 <0>         0.1312
     42 H15        -2.2044    0.8075   -0.5793 H         1 <0>         0.1349
     43 H16        -3.2214   -0.0593   -2.7931 H         1 <0>         0.1335
     44 H17        -4.3495    1.5351   -4.2196 H         1 <0>         0.1370
@<TRIPOS>BOND
     1    1    6 ar
     2    1    2 ar
     3    1   31 1
     4    2    3 ar
     5    2   32 1
     6    3    4 ar
     7    3   33 1
     8    4   10 1
     9    4    5 ar
    10    5    6 ar
    11    5    7 1
    12    6   34 1
    13    7    8 1
    14    7    9 1
    15    9   10 2
    16    9   11 1
    17   11   12 1
    18   11   35 1
    19   12   13 am
    20   12   36 1
    21   13   14 2
    22   13   15 am
    23   15   25 1
    24   15   16 1
    25   16   21 ar
    26   16   17 ar
    27   17   18 ar
    28   17   37 1
    29   18   19 ar
    30   18   38 1
    31   19   20 ar
    32   19   39 1
    33   20   21 ar
    34   20   40 1
    35   21   22 1
    36   22   23 1
    37   23   24 1
    38   23   30 1
    39   23   25 1
    40   25   26 1
    41   25   27 1
    42   27   28 2
    43   27   41 1
    44   28   29 1
    45   28   42 1
    46   29   30 2
    47   29   43 1
    48   30   44 1
