@<TRIPOS>MOLECULE
ZINC03500231
   51    53     0     0     0
SMALL
USER_CHARGES
2-[[4-amino-5-(p-tolyl)-1,2,4-triazol-3-yl]sulfanyl]-N-[(2,3,4-trifluorophenyl)carbamoylmethyl]propanamide
@<TRIPOS>ATOM
      1 C1         13.2350   14.2874    3.5999 C.3       1 <0>        -0.1210
      2 C2         12.1278   13.3707    3.1473 C.ar      1 <0>        -0.0669
      3 C3         12.3981   12.3579    2.2443 C.ar      1 <0>        -0.1128
      4 C4         11.3889   11.5155    1.8256 C.ar      1 <0>        -0.0661
      5 C5         10.0931   11.6867    2.3150 C.ar      1 <0>        -0.0269
      6 C6          9.8261   12.7138    3.2217 C.ar      1 <0>        -0.1178
      7 C7         10.8454   13.5459    3.6364 C.ar      1 <0>        -0.1114
      8 C8          9.0067   10.7880    1.8703 C.2       1 <0>         0.1970
      9 N1          9.1487    9.6397    1.2504 N.2       1 <0>        -0.2524
     10 N2          7.9959    9.1238    1.0130 N.2       1 <0>        -0.2840
     11 C9          7.0467    9.9117    1.4671 C.2       1 <0>         0.1748
     12 N3          7.6559   11.0003    2.0228 N.pl3     1 <0>        -0.3022
     13 N4          7.0503   12.0748    2.6099 N.3       1 <0>        -0.5861
     14 S1          5.3116    9.6210    1.3700 S.3       1 <0>         0.1096
     15 C10         5.3076    8.0251    0.5162 C.3       1 <0>        -0.1191
     16 H1          5.9209    7.3148    1.0706 H         1 <0>         0.1267
     17 C11         5.8770    8.1993   -0.8932 C.3       1 <0>        -0.1459
     18 C12         3.8953    7.5067    0.4269 C.2       1 <0>         0.5441
     19 O1          2.9621    8.2807    0.4586 O.2       1 <0>        -0.5180
     20 N5          3.6694    6.1830    0.3117 N.am      1 <0>        -0.7124
     21 C13         2.2965    5.6791    0.2249 C.3       1 <0>         0.1033
     22 C14         2.3194    4.1772    0.1036 C.2       1 <0>         0.5169
     23 O2          3.3784    3.5859    0.0909 O.2       1 <0>        -0.5060
     24 N6          1.1632    3.4910    0.0092 N.am      1 <0>        -0.6602
     25 C15         1.1777    2.0896    0.0133 C.ar      1 <0>         0.1376
     26 C16         2.2303    1.4073    0.6078 C.ar      1 <0>        -0.0854
     27 C17         2.2440    0.0257    0.6114 C.ar      1 <0>        -0.1078
     28 C18         1.2095   -0.6805    0.0219 C.ar      1 <0>         0.0831
     29 C19         0.1564   -0.0034   -0.5735 C.ar      1 <0>         0.0581
     30 C20         0.1388    1.3813   -0.5788 C.ar      1 <0>         0.0653
     31 F1         -0.8840    2.0426   -1.1635 F         1 <0>        -0.1154
     32 F2         -0.8521   -0.6942   -1.1487 F         1 <0>        -0.1108
     33 F3          1.2265   -2.0314    0.0264 F         1 <0>        -0.1165
     34 H2         13.2920   15.1461    2.9309 H         1 <0>         0.0766
     35 H3         13.0312   14.6300    4.6144 H         1 <0>         0.0704
     36 H4         14.1826   13.7491    3.5817 H         1 <0>         0.0717
     37 H5         13.4013   12.2262    1.8667 H         1 <0>         0.1346
     38 H6         11.6011   10.7255    1.1204 H         1 <0>         0.1401
     39 H7          8.8247   12.8541    3.6011 H         1 <0>         0.1149
     40 H8         10.6410   14.3386    4.3408 H         1 <0>         0.1321
     41 H9          6.9170   11.9195    3.5979 H         1 <0>         0.3687
     42 H10         7.5750   12.9206    2.4444 H         1 <0>         0.3809
     43 H11         5.2636    8.9095   -1.4477 H         1 <0>         0.0729
     44 H12         6.8984    8.5742   -0.8286 H         1 <0>         0.0913
     45 H13         5.8745    7.2382   -1.4074 H         1 <0>         0.0742
     46 H14         4.4157    5.5640    0.2863 H         1 <0>         0.4172
     47 H15         1.8071    6.1069   -0.6500 H         1 <0>         0.1115
     48 H16         1.7479    5.9628    1.1231 H         1 <0>         0.1132
     49 H17         0.3211    3.9671   -0.0615 H         1 <0>         0.4235
     50 H18         3.0384    1.9564    1.0679 H         1 <0>         0.1735
     51 H19         3.0633   -0.5041    1.0746 H         1 <0>         0.1615
@<TRIPOS>BOND
     1    1    2 1
     2    1   34 1
     3    1   35 1
     4    1   36 1
     5    2    7 ar
     6    2    3 ar
     7    3    4 ar
     8    3   37 1
     9    4    5 ar
    10    4   38 1
    11    5    6 ar
    12    5    8 1
    13    6    7 ar
    14    6   39 1
    15    7   40 1
    16    8   12 1
    17    8    9 2
    18    9   10 1
    19   10   11 2
    20   11   12 1
    21   11   14 1
    22   12   13 1
    23   13   41 1
    24   13   42 1
    25   14   15 1
    26   15   16 1
    27   15   17 1
    28   15   18 1
    29   17   43 1
    30   17   44 1
    31   17   45 1
    32   18   19 2
    33   18   20 am
    34   20   21 1
    35   20   46 1
    36   21   22 1
    37   21   47 1
    38   21   48 1
    39   22   23 2
    40   22   24 am
    41   24   25 1
    42   24   49 1
    43   25   30 ar
    44   25   26 ar
    45   26   27 ar
    46   26   50 1
    47   27   28 ar
    48   27   51 1
    49   28   29 ar
    50   28   33 1
    51   29   30 ar
    52   29   32 1
    53   30   31 1
