@<TRIPOS>MOLECULE
ZINC13791857
   51    53     0     0     0
SMALL
USER_CHARGES
(NZ,3R)-N-(3-allyl-6-sulfamoyl-1,3-benzothiazol-2-ylidene)-1-methylsulfonyl-piperidine-3-carboxamide
@<TRIPOS>ATOM
      1 C1          4.7907    1.7142    1.2503 C.3       1 <0>        -0.6729
      2 S1          3.5238    0.4160    1.2343 S.o2      1 <0>         2.6089
      3 O1          3.5483   -0.3070    2.4574 O.2       1 <0>        -0.9530
      4 O2          3.5390   -0.2673   -0.0116 O.2       1 <0>        -0.9523
      5 N1          2.0812    1.2289    1.2528 N.pl3     1 <0>        -1.0004
      6 C2          1.4336    1.5756    2.5253 C.3       1 <0>         0.1133
      7 C3         -0.0034    1.0452    2.5078 C.3       1 <0>        -0.1297
      8 C4         -0.7254    1.5801    1.2689 C.3       1 <0>        -0.1027
      9 C5         -0.0127    1.0858    0.0080 C.3       1 <0>        -0.0907
     10 H1          0.0021   -0.0041    0.0020 H         1 <0>         0.1093
     11 C6          1.4242    1.6167   -0.0029 C.3       1 <0>         0.1325
     12 C7         -0.7428    1.5857   -1.2119 C.2       1 <0>         0.4994
     13 O3         -0.1698    2.2972   -2.0144 O.2       1 <0>        -0.5222
     14 N2         -2.0128    1.2489   -1.4105 N.2       1 <0>        -0.5892
     15 C8         -2.6578    1.6904   -2.4882 C.2       1 <0>         0.4229
     16 N3         -3.9429    1.4493   -2.8590 N.pl3     1 <0>        -0.4973
     17 C9         -4.4448    2.0035   -4.0218 C.ar      1 <0>         0.1855
     18 C10        -5.7340    1.8747   -4.5624 C.ar      1 <0>        -0.1336
     19 C11        -6.0661    2.4946   -5.7434 C.ar      1 <0>         0.0157
     20 C12        -5.1442    3.2627   -6.4351 C.ar      1 <0>        -0.6874
     21 C13        -3.8660    3.4064   -5.9253 C.ar      1 <0>         0.0762
     22 C14        -3.5330    2.7871   -4.7439 C.ar      1 <0>        -0.2187
     23 S2         -2.0579    2.7054   -3.7599 S.3       1 <0>         0.1701
     24 S3         -5.5940    4.0478   -7.9470 S.o2      1 <0>         2.7081
     25 O4         -4.3888    4.2579   -8.6698 O.2       1 <0>        -0.9566
     26 O5         -6.6832    3.3075   -8.4808 O.2       1 <0>        -0.9539
     27 N4         -6.1835    5.5471   -7.5637 N.pl3     1 <0>        -1.2468
     28 C15        -4.7992    0.6048   -2.0225 C.3       1 <0>         0.1228
     29 C16        -5.5173    1.4621   -1.0124 C.2       1 <0>        -0.1807
     30 C17        -6.8243    1.4239   -0.9320 C.2       1 <0>        -0.1580
     31 H2          4.6800    2.3187    2.1506 H         1 <0>         0.1277
     32 H3          5.7799    1.2567    1.2392 H         1 <0>         0.1288
     33 H4          4.6733    2.3473    0.3709 H         1 <0>         0.1285
     34 H5          1.9813    1.1199    3.3501 H         1 <0>         0.0970
     35 H6          1.4241    2.6588    2.6472 H         1 <0>         0.0710
     36 H7          0.0113   -0.0443    2.4783 H         1 <0>         0.0733
     37 H8         -0.5251    1.3783    3.4051 H         1 <0>         0.0815
     38 H9         -0.7181    2.6699    1.2866 H         1 <0>         0.0658
     39 H10        -1.7556    1.2240    1.2670 H         1 <0>         0.0806
     40 H11         1.9658    1.1881   -0.8461 H         1 <0>         0.1012
     41 H12         1.4117    2.7031   -0.0908 H         1 <0>         0.0798
     42 H13        -6.4734    1.2821   -4.0442 H         1 <0>         0.1435
     43 H14        -7.0643    2.3803   -6.1396 H         1 <0>         0.1576
     44 H15        -3.1348    4.0021   -6.4515 H         1 <0>         0.1597
     45 H16        -6.0835    6.2820   -8.1888 H         1 <0>         0.4240
     46 H17        -6.6288    5.6904   -6.7139 H         1 <0>         0.4179
     47 H18        -5.5295    0.0936   -2.6498 H         1 <0>         0.0981
     48 H19        -4.1867   -0.1324   -1.5035 H         1 <0>         0.1178
     49 H20        -4.9545    2.1079   -0.3547 H         1 <0>         0.1177
     50 H21        -7.3872    0.7781   -1.5896 H         1 <0>         0.1017
     51 H22        -7.3390    2.0383   -0.2080 H         1 <0>         0.1082
@<TRIPOS>BOND
     1    1    2 1
     2    1   31 1
     3    1   32 1
     4    1   33 1
     5    2    3 2
     6    2    4 2
     7    2    5 1
     8    5   11 1
     9    5    6 1
    10    6    7 1
    11    6   34 1
    12    6   35 1
    13    7    8 1
    14    7   36 1
    15    7   37 1
    16    8    9 1
    17    8   38 1
    18    8   39 1
    19    9   10 1
    20    9   11 1
    21    9   12 1
    22   11   40 1
    23   11   41 1
    24   12   13 2
    25   12   14 1
    26   14   15 2
    27   15   23 1
    28   15   16 1
    29   16   17 1
    30   16   28 1
    31   17   22 ar
    32   17   18 ar
    33   18   19 ar
    34   18   42 1
    35   19   20 ar
    36   19   43 1
    37   20   21 ar
    38   20   24 1
    39   21   22 ar
    40   21   44 1
    41   22   23 1
    42   24   25 2
    43   24   26 2
    44   24   27 1
    45   27   45 1
    46   27   46 1
    47   28   29 1
    48   28   47 1
    49   28   48 1
    50   29   30 2
    51   29   49 1
    52   30   50 1
    53   30   51 1
