@<TRIPOS>MOLECULE
ZINC03134755
   36    38     0     0     0
SMALL
USER_CHARGES

@<TRIPOS>ATOM
      1 C1          3.7723    1.0203   -4.0647 C.ar      1 <0>        -0.2617
      2 C2          3.5207    1.8200   -2.9610 C.ar      1 <0>         0.1880
      3 N1          3.3139    1.2500   -1.7852 N.ar      1 <0>        -0.5179
      4 C3          3.3453   -0.0668   -1.6565 C.ar      1 <0>         0.4969
      5 N2          3.5831   -0.8591   -2.6895 N.ar      1 <0>        -0.5541
      6 C4          3.7979   -0.3549   -3.8936 C.ar      1 <0>         0.1869
      7 O1          3.1292   -0.6169   -0.4378 O.3       1 <0>        -0.2211
      8 C5          3.0629   -1.9728   -0.3519 C.ar      1 <0>         0.0973
      9 C6          1.8330   -2.6115   -0.4067 C.ar      1 <0>        -0.0805
     10 C7          1.7647   -3.9881   -0.3196 C.ar      1 <0>        -0.1101
     11 C8          2.9279   -4.7336   -0.1774 C.ar      1 <0>         0.1639
     12 C9          4.1592   -4.0943   -0.1229 C.ar      1 <0>        -0.1372
     13 C10         4.2266   -2.7169   -0.2151 C.ar      1 <0>        -0.0049
     14 Cl1         5.7662   -1.9171   -0.1538 Cl        1 <0>        -0.0380
     15 N3          2.8589   -6.1281   -0.0886 N.pl3     1 <0>        -1.0534
     16 S1          3.8976   -7.0665   -0.9734 S.o2      1 <0>         2.6889
     17 O2          5.2043   -6.5614   -0.7352 O.2       1 <0>        -0.9396
     18 O3          3.5444   -8.4183   -0.7144 O.2       1 <0>        -0.9400
     19 C11         3.5459   -6.7712   -2.6745 C.ar      1 <0>        -0.6785
     20 C12         2.5326   -7.4715   -3.3022 C.ar      1 <0>        -0.0033
     21 C13         2.2563   -7.2403   -4.6366 C.ar      1 <0>        -0.1319
     22 C14         2.9940   -6.3079   -5.3441 C.ar      1 <0>         0.0220
     23 C15         4.0080   -5.6074   -4.7153 C.ar      1 <0>        -0.1281
     24 C16         4.2797   -5.8354   -3.3794 C.ar      1 <0>         0.0007
     25 Cl2         2.6479   -6.0174   -7.0202 Cl        1 <0>        -0.0500
     26 H1          3.9403    1.4587   -5.0373 H         1 <0>         0.1544
     27 H2          3.4942    2.8952   -3.0595 H         1 <0>         0.1803
     28 H3          3.9907   -1.0068   -4.7328 H         1 <0>         0.1733
     29 H4          0.9283   -2.0321   -0.5172 H         1 <0>         0.1470
     30 H5          0.8067   -4.4849   -0.3616 H         1 <0>         0.1467
     31 H6          5.0641   -4.6733   -0.0120 H         1 <0>         0.1762
     32 H7          2.2026   -6.5453    0.4912 H         1 <0>         0.4334
     33 H8          1.9570   -8.1995   -2.7499 H         1 <0>         0.1501
     34 H9          1.4649   -7.7876   -5.1270 H         1 <0>         0.1465
     35 H10         4.5844   -4.8797   -5.2671 H         1 <0>         0.1462
     36 H11         5.0680   -5.2853   -2.8872 H         1 <0>         0.1516
@<TRIPOS>BOND
     1    1    6 ar
     2    1    2 ar
     3    1   26 1
     4    2    3 ar
     5    2   27 1
     6    3    4 ar
     7    4    5 ar
     8    4    7 1
     9    5    6 ar
    10    6   28 1
    11    7    8 1
    12    8   13 ar
    13    8    9 ar
    14    9   10 ar
    15    9   29 1
    16   10   11 ar
    17   10   30 1
    18   11   12 ar
    19   11   15 1
    20   12   13 ar
    21   12   31 1
    22   13   14 1
    23   15   16 1
    24   15   32 1
    25   16   17 2
    26   16   18 2
    27   16   19 1
    28   19   24 ar
    29   19   20 ar
    30   20   21 ar
    31   20   33 1
    32   21   22 ar
    33   21   34 1
    34   22   23 ar
    35   22   25 1
    36   23   24 ar
    37   23   35 1
    38   24   36 1
