@<TRIPOS>MOLECULE
ZINC08654604
   56    59     0     0     0
SMALL
USER_CHARGES

@<TRIPOS>ATOM
      1 C1         -0.0184    1.5028    0.0103 C.3       1 <0>        -0.1105
      2 C2          0.0021   -0.0041    0.0020 C.ar      1 <0>         0.2157
      3 C3          0.0060   -0.6992   -1.1973 C.ar      1 <0>        -0.2458
      4 C4          0.0255   -2.0848   -1.1592 C.ar      1 <0>         0.2124
      5 N1          0.0397   -2.6974    0.0130 N.ar      1 <0>        -0.5103
      6 C5          0.0354   -2.0031    1.1397 C.ar      1 <0>         0.5692
      7 N2          0.0220   -0.6797    1.1390 N.ar      1 <0>        -0.5592
      8 N3          0.0507   -2.6822    2.3569 N.pl3     1 <0>        -0.3128
      9 C6          0.0433   -2.1189    3.5841 C.2       1 <0>         0.3511
     10 C7          0.0509   -3.1334    4.5041 C.2       1 <0>        -0.2632
     11 C8          0.0750   -4.3374    3.8144 C.2       1 <0>         0.1354
     12 N4          0.0705   -4.0761    2.5284 N.2       1 <0>        -0.2493
     13 C9          0.0963   -5.7101    4.4358 C.3       1 <0>        -0.0904
     14 C10         0.0256   -2.8751    5.9893 C.3       1 <0>         0.0478
     15 H1         -1.0059   -2.8518    6.3406 H         1 <0>         0.1036
     16 C11         0.6919   -1.5209    6.2534 C.3       1 <0>        -0.1322
     17 C12         0.2287   -0.4855    5.2677 C.2       1 <0>         0.5349
     18 O1          0.0400    0.6493    5.6523 O.2       1 <0>        -0.5075
     19 N5          0.0161   -0.7794    3.9673 N.am      1 <0>        -0.6370
     20 C13         0.7822   -3.9629    6.7071 C.ar      1 <0>        -0.1165
     21 C14         2.1220   -4.1676    6.4341 C.ar      1 <0>        -0.0588
     22 C15         2.8203   -5.1639    7.0897 C.ar      1 <0>        -0.1989
     23 C16         2.1790   -5.9627    8.0246 C.ar      1 <0>         0.1258
     24 C17         0.8326   -5.7600    8.3022 C.ar      1 <0>         0.0472
     25 C18         0.1352   -4.7534    7.6445 C.ar      1 <0>         0.1272
     26 O2         -1.1813   -4.5477    7.9164 O.3       1 <0>        -0.3254
     27 C19        -2.1275   -5.2750    7.1304 C.3       1 <0>         0.0327
     28 O3          0.1997   -6.5418    9.2189 O.3       1 <0>        -0.3187
     29 C20         0.2115   -6.0907   10.5748 C.3       1 <0>         0.0378
     30 O4          2.8668   -6.9434    8.6686 O.3       1 <0>        -0.3031
     31 C21         4.2476   -7.0951    8.3329 C.3       1 <0>         0.0232
     32 C22         0.0300   -2.8831   -2.4373 C.3       1 <0>        -0.1094
     33 H2          1.0042    1.8801    0.0026 H         1 <0>         0.0928
     34 H3         -0.5455    1.8639   -0.8728 H         1 <0>         0.0901
     35 H4         -0.5286    1.8543    0.9071 H         1 <0>         0.0863
     36 H5         -0.0062   -0.1731   -2.1404 H         1 <0>         0.1579
     37 H6         -0.9261   -6.0591    4.5812 H         1 <0>         0.0837
     38 H7          0.6252   -6.3990    3.7772 H         1 <0>         0.0814
     39 H8          0.6052   -5.6652    5.3987 H         1 <0>         0.0898
     40 H9          0.4426   -1.1908    7.2618 H         1 <0>         0.1188
     41 H10         1.7731   -1.6328    6.1722 H         1 <0>         0.1088
     42 H11        -0.1506   -0.0781    3.3181 H         1 <0>         0.4260
     43 H12         2.6241   -3.5474    5.7064 H         1 <0>         0.1329
     44 H13         3.8667   -5.3208    6.8734 H         1 <0>         0.1383
     45 H14        -2.0017   -5.0164    6.0791 H         1 <0>         0.0504
     46 H15        -1.9647   -6.3445    7.2635 H         1 <0>         0.0551
     47 H16        -3.1379   -5.0189    7.4492 H         1 <0>         0.0967
     48 H17        -0.3262   -6.8038   11.1997 H         1 <0>         0.0936
     49 H18         1.2416   -6.0083   10.9214 H         1 <0>         0.0452
     50 H19        -0.2720   -5.1158   10.6376 H         1 <0>         0.0495
     51 H20         4.3405   -7.3212    7.2706 H         1 <0>         0.0588
     52 H21         4.7793   -6.1700    8.5553 H         1 <0>         0.0574
     53 H22         4.6760   -7.9098    8.9166 H         1 <0>         0.1034
     54 H23         1.0586   -3.0613   -2.7508 H         1 <0>         0.0920
     55 H24        -0.4698   -3.8375   -2.2713 H         1 <0>         0.0883
     56 H25        -0.4957   -2.3280   -3.2143 H         1 <0>         0.0877
@<TRIPOS>BOND
     1    1    2 1
     2    1   33 1
     3    1   34 1
     4    1   35 1
     5    2    7 ar
     6    2    3 ar
     7    3    4 ar
     8    3   36 1
     9    4    5 ar
    10    4   32 1
    11    5    6 ar
    12    6    7 ar
    13    6    8 1
    14    8   12 1
    15    8    9 1
    16    9   19 1
    17    9   10 2
    18   10   11 1
    19   10   14 1
    20   11   12 2
    21   11   13 1
    22   13   37 1
    23   13   38 1
    24   13   39 1
    25   14   15 1
    26   14   16 1
    27   14   20 1
    28   16   17 1
    29   16   40 1
    30   16   41 1
    31   17   18 2
    32   17   19 am
    33   19   42 1
    34   20   25 ar
    35   20   21 ar
    36   21   22 ar
    37   21   43 1
    38   22   23 ar
    39   22   44 1
    40   23   24 ar
    41   23   30 1
    42   24   25 ar
    43   24   28 1
    44   25   26 1
    45   26   27 1
    46   27   45 1
    47   27   46 1
    48   27   47 1
    49   28   29 1
    50   29   48 1
    51   29   49 1
    52   29   50 1
    53   30   31 1
    54   31   51 1
    55   31   52 1
    56   31   53 1
    57   32   54 1
    58   32   55 1
    59   32   56 1
