@<TRIPOS>MOLECULE
ZINC35783671
   35    37     0     0     0
SMALL
USER_CHARGES

@<TRIPOS>ATOM
      1 C1         -0.0187    1.5258    0.0104 C.3       1 <0>        -0.1458
      2 C2          0.0021   -0.0041    0.0020 C.3       1 <0>         0.0702
      3 H1         -1.0202   -0.3821    0.0097 H         1 <0>         0.0541
      4 C3          0.7217   -0.4995   -1.2576 C.3       1 <0>         0.1140
      5 N1          0.8936   -1.9570   -1.1510 N.pl3     1 <0>        -0.6680
      6 C4          1.4828   -2.4954    0.0852 C.3       1 <0>         0.1346
      7 H2          2.5350   -2.2163    0.1422 H         1 <0>         0.0700
      8 C5          0.7262   -1.9027    1.2795 C.3       1 <0>         0.0497
      9 O1          0.6954   -0.4786    1.1587 O.3       1 <0>        -0.3754
     10 C6          1.3527   -4.0198    0.0968 C.3       1 <0>        -0.1569
     11 C7          0.5064   -2.8087   -2.1975 C.ar      1 <0>         0.0874
     12 C8          1.4264   -3.1327   -3.1901 C.ar      1 <0>        -0.0428
     13 C9          1.0483   -3.9718   -4.2220 C.ar      1 <0>        -0.1242
     14 C10        -0.2299   -4.4756   -4.2557 C.ar      1 <0>        -0.1150
     15 C11        -1.1924   -4.1711   -3.2682 C.ar      1 <0>         0.0050
     16 C12        -0.7804   -3.3149   -2.2199 C.ar      1 <0>         0.2791
     17 N2         -1.6815   -2.9741   -1.2030 N.pl3     1 <0>        -0.8544
     18 N3         -2.3858   -4.7641   -3.4812 N.2       1 <0>        -0.4969
     19 C13        -2.6025   -5.5368   -4.5048 C.2       1 <0>         0.0535
     20 S1         -1.1398   -5.5483   -5.3371 S.3       1 <0>         0.0776
     21 H3          1.0039    1.9031    0.0027 H         1 <0>         0.0670
     22 H4         -0.5459    1.8868   -0.8726 H         1 <0>         0.0727
     23 H5         -0.5289    1.8773    0.9072 H         1 <0>         0.0663
     24 H6          0.1243   -0.2637   -2.1384 H         1 <0>         0.0784
     25 H7          1.6972   -0.0195   -1.3359 H         1 <0>         0.0628
     26 H8         -0.2932   -2.2884    1.2923 H         1 <0>         0.0475
     27 H9          1.2323   -2.1788    2.2045 H         1 <0>         0.1016
     28 H10         1.8762   -4.4357   -0.7641 H         1 <0>         0.0662
     29 H11         1.7901   -4.4148    1.0137 H         1 <0>         0.0686
     30 H12         0.2990   -4.2948    0.0490 H         1 <0>         0.0594
     31 H13         2.4284   -2.7314   -3.1548 H         1 <0>         0.1373
     32 H14         1.7539   -4.2297   -4.9979 H         1 <0>         0.1331
     33 H15        -1.4024   -2.3843   -0.4853 H         1 <0>         0.3984
     34 H16        -2.5846   -3.3278   -1.2166 H         1 <0>         0.4057
     35 H17        -3.5148   -6.0544   -4.7622 H         1 <0>         0.2193
@<TRIPOS>BOND
     1    1    2 1
     2    1   21 1
     3    1   22 1
     4    1   23 1
     5    2    3 1
     6    2    9 1
     7    2    4 1
     8    4    5 1
     9    4   24 1
    10    4   25 1
    11    5    6 1
    12    5   11 1
    13    6    7 1
    14    6    8 1
    15    6   10 1
    16    8    9 1
    17    8   26 1
    18    8   27 1
    19   10   28 1
    20   10   29 1
    21   10   30 1
    22   11   16 ar
    23   11   12 ar
    24   12   13 ar
    25   12   31 1
    26   13   14 ar
    27   13   32 1
    28   14   20 1
    29   14   15 ar
    30   15   16 ar
    31   15   18 1
    32   16   17 1
    33   17   33 1
    34   17   34 1
    35   18   19 2
    36   19   20 1
    37   19   35 1
