@<TRIPOS>MOLECULE
ZINC41069847
   33    34     0     0     0
SMALL
USER_CHARGES

@<TRIPOS>ATOM
      1 C1          0.2653   -1.4562    1.6202 C.ar      1 <0>         0.0971
      2 C2          1.4625   -0.9357    2.0962 C.ar      1 <0>        -0.2280
      3 C3          2.0064    0.1770    1.4851 C.ar      1 <0>         0.2442
      4 N1          1.4035    0.7482    0.4594 N.ar      1 <0>        -0.5213
      5 C4          0.2621    0.2820   -0.0227 C.ar      1 <0>         0.5059
      6 C5         -0.3422   -0.8359    0.5438 C.ar      1 <0>        -0.7986
      7 S1         -1.8611   -1.4531   -0.1017 S.o2      1 <0>         2.6928
      8 O1         -2.1827   -2.6122    0.6548 O.2       1 <0>        -0.9378
      9 O2         -2.7406   -0.3416   -0.2035 O.2       1 <0>        -0.9439
     10 N2         -1.5640   -1.9647   -1.6484 N.pl3     1 <0>        -1.1065
     11 C6         -0.6441   -3.0797   -1.8871 C.3       1 <0>         0.1471
     12 H1         -0.2737   -3.4614   -0.9357 H         1 <0>         0.1187
     13 C7          0.5360   -2.6036   -2.7504 C.3       1 <0>        -0.1415
     14 C8          1.3337   -3.8230   -3.2723 C.3       1 <0>        -0.5789
     15 S2          0.0543   -5.1422   -3.3435 S.o2      1 <0>         2.3737
     16 O3          0.4090   -6.1796   -2.4395 O.2       1 <0>        -0.9239
     17 O4         -0.2075   -5.4593   -4.7038 O.2       1 <0>        -0.9283
     18 C9         -1.3807   -4.2129   -2.6569 C.3       1 <0>        -0.5938
     19 N3         -0.3386    0.9157   -1.1048 N.pl3     1 <0>        -0.5540
     20 N4          0.2188    2.0471   -1.6293 N.3       1 <0>        -0.5923
     21 Br1         2.3377   -1.7421    3.5657 Br        1 <0>        -0.0199
     22 H2         -0.1784   -2.3280    2.0778 H         1 <0>         0.1665
     23 H3          2.9368    0.5851    1.8515 H         1 <0>         0.1776
     24 H4         -1.9990   -1.5262   -2.3963 H         1 <0>         0.4230
     25 H5          0.1572   -2.0300   -3.5964 H         1 <0>         0.0967
     26 H6          1.1915   -1.9721   -2.1508 H         1 <0>         0.0982
     27 H7          1.7392   -3.6238   -4.2642 H         1 <0>         0.1479
     28 H8          2.1279   -4.0920   -2.5758 H         1 <0>         0.1449
     29 H9         -1.9648   -4.8349   -1.9788 H         1 <0>         0.1551
     30 H10        -2.0051   -3.8072   -3.4530 H         1 <0>         0.1503
     31 H11        -1.1535    0.5543   -1.4873 H         1 <0>         0.4101
     32 H12         1.1765    1.8851   -1.9026 H         1 <0>         0.3537
     33 H13        -0.3254    2.3918   -2.4058 H         1 <0>         0.3653
@<TRIPOS>BOND
     1    1    6 ar
     2    1    2 ar
     3    1   22 1
     4    2    3 ar
     5    2   21 1
     6    3    4 ar
     7    3   23 1
     8    4    5 ar
     9    5    6 ar
    10    5   19 1
    11    6    7 1
    12    7    8 2
    13    7    9 2
    14    7   10 1
    15   10   11 1
    16   10   24 1
    17   11   12 1
    18   11   18 1
    19   11   13 1
    20   13   14 1
    21   13   25 1
    22   13   26 1
    23   14   15 1
    24   14   27 1
    25   14   28 1
    26   15   16 2
    27   15   17 2
    28   15   18 1
    29   18   29 1
    30   18   30 1
    31   19   20 1
    32   19   31 1
    33   20   32 1
    34   20   33 1
