@<TRIPOS>MOLECULE
ZINC05387708
   39    42     0     0     0
SMALL
USER_CHARGES
2-hydroxy-N-[(3-hydroxybenzothiophen-2-yl)methyleneamino]quinoline-4-carboxamide
@<TRIPOS>ATOM
      1 C1          2.3811    1.4299    0.0330 C.ar      1 <0>        -0.1437
      2 C2          1.1561    2.0926    0.0471 C.ar      1 <0>        -0.0527
      3 C3         -0.0168    1.4017    0.0401 C.ar      1 <0>        -0.1624
      4 C4          0.0022   -0.0042    0.0174 C.ar      1 <0>         0.1744
      5 C5          1.2508   -0.6730    0.0023 C.ar      1 <0>        -0.1074
      6 C6          2.4379    0.0678    0.0104 C.ar      1 <0>        -0.0549
      7 C7          1.2615   -2.1359   -0.0217 C.2       1 <0>        -0.0173
      8 C8          0.0321   -2.7812   -0.0282 C.2       1 <0>        -0.1416
      9 C9         -1.1430   -2.0223   -0.0123 C.2       1 <0>         0.4720
     10 N1         -1.1323   -0.7098    0.0096 N.am      1 <0>        -0.5504
     11 O1         -2.3364   -2.6658   -0.0193 O.2       1 <0>        -0.5994
     12 C10         2.5293   -2.8957   -0.0383 C.2       1 <0>         0.5819
     13 O2          3.5895   -2.3078   -0.1368 O.2       1 <0>        -0.4734
     14 N2          2.5105   -4.2401    0.0556 N.am      1 <0>        -0.5707
     15 N3          3.7121   -4.9603    0.0399 N.2       1 <0>        -0.2200
     16 C11         3.6940   -6.2592    0.1307 C.2       1 <0>         0.1629
     17 C12         4.9496   -7.0117    0.1143 C.2       1 <0>        -0.1463
     18 C13         5.1273   -8.3606    0.2034 C.2       1 <0>         0.1372
     19 C14         6.4794   -8.8932    0.1606 C.ar      1 <0>        -0.1214
     20 C15         6.8990  -10.2447    0.2307 C.ar      1 <0>        -0.0573
     21 C16         8.2187  -10.5656    0.1807 C.ar      1 <0>        -0.1256
     22 C17         9.1994   -9.5894    0.0602 C.ar      1 <0>        -0.0798
     23 C18         8.8321   -8.2602   -0.0107 C.ar      1 <0>        -0.0813
     24 C19         7.4968   -7.9200    0.0384 C.ar      1 <0>        -0.1080
     25 S1          6.6122   -6.3832   -0.0192 S.3       1 <0>         0.1198
     26 O3          4.0591   -9.1929    0.3262 O.3       1 <0>        -0.4794
     27 H1          3.2972    2.0019    0.0394 H         1 <0>         0.1359
     28 H2          1.1365    3.1723    0.0646 H         1 <0>         0.1375
     29 H3         -0.9581    1.9313    0.0475 H         1 <0>         0.1418
     30 H4          3.3930   -0.4362   -0.0007 H         1 <0>         0.1686
     31 H5         -0.0165   -3.8600   -0.0454 H         1 <0>         0.1618
     32 H6         -2.0044   -0.2207    0.0209 H         1 <0>         0.4326
     33 H7          1.6650   -4.7090    0.1342 H         1 <0>         0.3919
     34 H8          2.7526   -6.7813    0.2181 H         1 <0>         0.1430
     35 H9          6.1620  -11.0285    0.3246 H         1 <0>         0.1301
     36 H10         8.5116  -11.6037    0.2361 H         1 <0>         0.1317
     37 H11        10.2422   -9.8680    0.0228 H         1 <0>         0.1385
     38 H12         9.5856   -7.4922   -0.1044 H         1 <0>         0.1369
     39 H13         3.6997   -9.4987   -0.5178 H         1 <0>         0.3943
@<TRIPOS>BOND
     1    1    6 ar
     2    1    2 ar
     3    1   27 1
     4    2    3 ar
     5    2   28 1
     6    3    4 ar
     7    3   29 1
     8    4    5 ar
     9    4   10 1
    10    5    6 ar
    11    5    7 1
    12    6   30 1
    13    7   12 1
    14    7    8 2
    15    8   31 1
    16    8    9 1
    17    9   10 am
    18    9   11 2
    19   10   32 1
    20   12   13 2
    21   12   14 am
    22   14   15 1
    23   14   33 1
    24   15   16 2
    25   16   17 1
    26   16   34 1
    27   17   25 1
    28   17   18 2
    29   18   19 1
    30   18   26 1
    31   19   24 ar
    32   19   20 ar
    33   20   21 ar
    34   20   35 1
    35   21   22 ar
    36   21   36 1
    37   22   23 ar
    38   22   37 1
    39   23   24 ar
    40   23   38 1
    41   24   25 1
    42   26   39 1
