@<TRIPOS>MOLECULE
ZINC02537499
   17    17     0     0     0
SMALL
USER_CHARGES
4-chloro-3,5-bis(difluoromethyl)-1-nitro-pyrazole
@<TRIPOS>ATOM
      1 C1          1.1039    2.3385    0.0041 C.2       1 <0>        -0.0852
      2 C2         -0.0184    1.5028    0.0103 C.2       1 <0>         0.0542
      3 N1         -1.0887    2.2554    0.0189 N.2       1 <0>        -0.1644
      4 N2         -0.6816    3.5958    0.0279 N.pl3     1 <0>        -0.2647
      5 C3          0.6685    3.6202    0.0151 C.2       1 <0>         0.0345
      6 C4          1.5351    4.8532    0.0139 C.3       1 <0>         0.3434
      7 F1          1.2528    5.6205   -1.1213 F         1 <0>        -0.1719
      8 F2          1.2746    5.6074    1.1631 F         1 <0>        -0.1719
      9 N3         -1.5261    4.7136    0.0416 N.pl3     1 <0>         0.1872
     10 O1         -1.0516    5.8354    0.0426 O.2       1 <0>        -0.0771
     11 O2         -2.7348    4.5636    0.0523 O.3       1 <0>        -0.0459
     12 C5          0.0021   -0.0041    0.0020 C.3       1 <0>         0.3601
     13 F3          0.6569   -0.4552   -1.1490 F         1 <0>        -0.1712
     14 F4          0.6787   -0.4675    1.1354 F         1 <0>        -0.1711
     15 Cl1         2.7615    1.8228   -0.0145 Cl        1 <0>         0.0365
     16 H1          2.5847    4.5596    0.0022 H         1 <0>         0.1551
     17 H2         -1.0205   -0.3814    0.0098 H         1 <0>         0.1522
@<TRIPOS>BOND
     1    1    5 2
     2    1    2 1
     3    1   15 1
     4    2    3 2
     5    2   12 1
     6    3    4 1
     7    4    5 1
     8    4    9 1
     9    5    6 1
    10    6    7 1
    11    6    8 1
    12    6   16 1
    13    9   10 2
    14    9   11 1
    15   12   13 1
    16   12   14 1
    17   12   17 1
