@<TRIPOS>MOLECULE
ZINC06292347
   41    44     0     0     0
SMALL
USER_CHARGES
1-[(5-amino-1,3,4-thiadiazol-2-yl)sulfanyl]ethyl-methyl-BLAHone
@<TRIPOS>ATOM
      1 C1          3.5464    2.0934   -1.3218 C.3       1 <0>        -0.1473
      2 C2          2.1936    1.3978   -1.1567 C.3       1 <0>        -0.0872
      3 H1          1.6183    1.4937   -2.0775 H         1 <0>         0.0773
      4 C3          1.4207    2.0372   -0.0006 C.3       1 <0>        -0.1176
      5 C4         -0.0186    1.5222    0.0104 C.3       1 <0>        -0.0595
      6 C5          0.0021   -0.0041    0.0020 C.2       1 <0>        -0.0517
      7 C6          1.1126   -0.6743   -0.3858 C.2       1 <0>        -0.1687
      8 S1          0.6923   -2.3929   -0.2402 S.3       1 <0>         0.1662
      9 C7         -0.9651   -2.2097    0.3375 C.2       1 <0>         0.0838
     10 C8         -1.1389   -0.8093    0.3988 C.2       1 <0>        -0.2437
     11 C9         -2.4170   -0.3300    0.8434 C.2       1 <0>         0.5655
     12 O1         -2.6690    0.8594    0.9312 O.2       1 <0>        -0.5046
     13 N1         -3.3248   -1.2841    1.1586 N.am      1 <0>        -0.6352
     14 H2         -4.2293   -0.9960    1.4731 H         1 <0>         0.4212
     15 C10        -3.0650   -2.6106    1.0678 C.2       1 <0>         0.4170
     16 N2         -1.9078   -3.0880    0.6652 N.2       1 <0>        -0.4461
     17 C11        -4.1521   -3.5836    1.4451 C.3       1 <0>        -0.0420
     18 H3         -4.0943   -4.4608    0.8007 H         1 <0>         0.1510
     19 C12        -3.9718   -4.0095    2.9036 C.3       1 <0>        -0.1478
     20 S2         -5.7707   -2.7902    1.2426 S.3       1 <0>         0.0529
     21 C13        -6.9229   -4.0816    1.5736 C.2       1 <0>         0.0366
     22 N3         -6.6975   -5.3407    1.8963 N.2       1 <0>        -0.2600
     23 N4         -7.7564   -6.1912    2.1150 N.2       1 <0>        -0.3717
     24 C14        -8.9917   -5.7441    2.0012 C.2       1 <0>         0.3565
     25 S3         -8.7085   -4.0340    1.5696 S.3       1 <0>         0.0176
     26 N5        -10.1930   -6.4212    2.1756 N.pl3     1 <0>        -0.7857
     27 C15         2.4138   -0.0881   -0.8393 C.3       1 <0>        -0.0335
     28 H4          4.0978    1.6265   -2.1380 H         1 <0>         0.0581
     29 H5          3.3875    3.1479   -1.5471 H         1 <0>         0.0598
     30 H6          4.1175    2.0012   -0.3980 H         1 <0>         0.0575
     31 H7          1.4170    3.1204   -0.1224 H         1 <0>         0.0730
     32 H8          1.9041    1.7816    0.9424 H         1 <0>         0.0664
     33 H9         -0.5429    1.8850   -0.8737 H         1 <0>         0.0800
     34 H10        -0.5258    1.8754    0.9082 H         1 <0>         0.0870
     35 H11        -2.9992   -4.4862    3.0253 H         1 <0>         0.0879
     36 H12        -4.0296   -3.1323    3.5480 H         1 <0>         0.0731
     37 H13        -4.7581   -4.7133    3.1765 H         1 <0>         0.0917
     38 H14       -10.1896   -7.3609    2.4162 H         1 <0>         0.4246
     39 H15       -11.0347   -5.9540    2.0568 H         1 <0>         0.4249
     40 H16         3.1561   -0.1874   -0.0473 H         1 <0>         0.0875
     41 H17         2.7571   -0.6069   -1.7343 H         1 <0>         0.0849
@<TRIPOS>BOND
     1    1    2 1
     2    1   28 1
     3    1   29 1
     4    1   30 1
     5    2    3 1
     6    2   27 1
     7    2    4 1
     8    4    5 1
     9    4   31 1
    10    4   32 1
    11    5    6 1
    12    5   33 1
    13    5   34 1
    14    6   10 1
    15    6    7 2
    16    7    8 1
    17    7   27 1
    18    8    9 1
    19    9   16 1
    20    9   10 2
    21   10   11 1
    22   11   12 2
    23   11   13 am
    24   13   14 1
    25   13   15 1
    26   15   16 2
    27   15   17 1
    28   17   18 1
    29   17   19 1
    30   17   20 1
    31   19   35 1
    32   19   36 1
    33   19   37 1
    34   20   21 1
    35   21   25 1
    36   21   22 2
    37   22   23 1
    38   23   24 2
    39   24   25 1
    40   24   26 1
    41   26   38 1
    42   26   39 1
    43   27   40 1
    44   27   41 1
