@<TRIPOS>MOLECULE
ZINC14736723
   40    41     0     0     0
SMALL
USER_CHARGES
N-(4-chloro-2-methyl-phenyl)-2-[(4R)-2,5-dioxo-4-propyl-imidazolidin-1-yl]acetamide
@<TRIPOS>ATOM
      1 C1          0.1804   -6.9551    1.5708 C.3       1 <0>        -0.1544
      2 C2          1.5562   -6.4726    1.1068 C.3       1 <0>        -0.1214
      3 C3          1.7409   -5.0053    1.4989 C.3       1 <0>        -0.1211
      4 C4          3.1167   -4.5228    1.0350 C.3       1 <0>         0.0972
      5 H1          3.9029   -5.1549    1.4479 H         1 <0>         0.1318
      6 C5          3.3419   -3.0754    1.4250 C.2       1 <0>         0.5310
      7 O1          3.3713   -2.6152    2.5462 O.2       1 <0>        -0.4589
      8 N1          3.5010   -2.4062    0.2661 N.am      1 <0>        -0.5637
      9 C6          3.4159   -3.2224   -0.7907 C.2       1 <0>         0.7085
     10 O2          3.5308   -2.8509   -1.9422 O.2       1 <0>        -0.5385
     11 N2          3.1891   -4.5001   -0.4362 N.am      1 <0>        -0.7188
     12 C7          3.7435   -0.9643    0.1749 C.3       1 <0>         0.1023
     13 C8          2.4263   -0.2386    0.0783 C.2       1 <0>         0.5024
     14 O3          1.3872   -0.8643    0.0851 O.2       1 <0>        -0.5036
     15 N3          2.4028    1.1057   -0.0155 N.am      1 <0>        -0.6661
     16 C9          1.1798    1.7864   -0.0102 C.ar      1 <0>         0.1464
     17 C10         0.0636    1.2159   -0.6083 C.ar      1 <0>        -0.1032
     18 C11        -1.1403    1.8923   -0.6072 C.ar      1 <0>        -0.0971
     19 C12        -1.2382    3.1324   -0.0003 C.ar      1 <0>        -0.0426
     20 C13        -0.1276    3.7031    0.5958 C.ar      1 <0>        -0.0937
     21 C14         1.0804    3.0333    0.5924 C.ar      1 <0>        -0.0961
     22 C15         2.2896    3.6555    1.2418 C.3       1 <0>        -0.1168
     23 Cl1        -2.7550    3.9766    0.0061 Cl        1 <0>        -0.0675
     24 H2         -0.5947   -6.3522    1.0976 H         1 <0>         0.0561
     25 H3          0.0487   -8.0005    1.2914 H         1 <0>         0.0588
     26 H4          0.1069   -6.8564    2.6538 H         1 <0>         0.0576
     27 H5          1.6296   -6.5713    0.0238 H         1 <0>         0.0637
     28 H6          2.3312   -7.0755    1.5800 H         1 <0>         0.0691
     29 H7          1.6675   -4.9066    2.5820 H         1 <0>         0.0914
     30 H8          0.9659   -4.4024    1.0258 H         1 <0>         0.0792
     31 H9          3.0925   -5.2587   -1.0329 H         1 <0>         0.4425
     32 H10         4.3412   -0.7517   -0.7115 H         1 <0>         0.1340
     33 H11         4.2788   -0.6290    1.0631 H         1 <0>         0.1320
     34 H12         3.2335    1.6015   -0.0866 H         1 <0>         0.4151
     35 H13         0.1382    0.2461   -1.0777 H         1 <0>         0.1479
     36 H14        -2.0074    1.4511   -1.0760 H         1 <0>         0.1373
     37 H15        -0.2054    4.6730    1.0644 H         1 <0>         0.1386
     38 H16         2.8278    4.2555    0.5080 H         1 <0>         0.0769
     39 H17         1.9715    4.2913    2.0681 H         1 <0>         0.0763
     40 H18         2.9441    2.8698    1.6191 H         1 <0>         0.0675
@<TRIPOS>BOND
     1    1    2 1
     2    1   24 1
     3    1   25 1
     4    1   26 1
     5    2    3 1
     6    2   27 1
     7    2   28 1
     8    3    4 1
     9    3   29 1
    10    3   30 1
    11    4    5 1
    12    4   11 1
    13    4    6 1
    14    6    7 2
    15    6    8 am
    16    8    9 am
    17    8   12 1
    18    9   10 2
    19    9   11 am
    20   11   31 1
    21   12   13 1
    22   12   32 1
    23   12   33 1
    24   13   14 2
    25   13   15 am
    26   15   16 1
    27   15   34 1
    28   16   21 ar
    29   16   17 ar
    30   17   18 ar
    31   17   35 1
    32   18   19 ar
    33   18   36 1
    34   19   20 ar
    35   19   23 1
    36   20   21 ar
    37   20   37 1
    38   21   22 1
    39   22   38 1
    40   22   39 1
    41   22   40 1
