@<TRIPOS>MOLECULE
ZINC36705805
   50    52     0     0     0
SMALL
USER_CHARGES

@<TRIPOS>ATOM
      1 C1         -0.0184    1.5028    0.0103 C.3       1 <0>        -0.0955
      2 C2          0.0021   -0.0041    0.0020 C.ar      1 <0>         0.4151
      3 N1          0.0052   -0.6375   -1.1534 N.ar      1 <0>        -0.5578
      4 C3          0.0235   -1.9673   -1.2023 C.ar      1 <0>         0.4779
      5 C4          0.0394   -2.6871   -0.0091 C.ar      1 <0>        -0.2853
      6 C5          0.0354   -1.9798    1.1860 C.ar      1 <0>         0.3952
      7 N2          0.0217   -0.6497    1.1499 N.ar      1 <0>        -0.5720
      8 N3          0.0503   -2.6547    2.4082 N.pl3     1 <0>        -0.3655
      9 C6          0.0756   -4.0147    2.5891 C.2       1 <0>         0.0262
     10 C7          0.0823   -4.2308    3.9176 C.2       1 <0>         0.0147
     11 N4          0.0618   -3.0407    4.5366 N.pl3     1 <0>        -0.4779
     12 C8          0.0485   -2.0888    3.6446 C.cat     1 <0>         0.3599
     13 C9          0.0298   -0.6103    3.9356 C.3       1 <0>        -0.1188
     14 N5          0.0262   -2.6264   -2.4214 N.pl3     1 <0>        -0.6917
     15 C10         0.0464   -4.0907   -2.4625 C.3       1 <0>         0.1097
     16 C11         0.0452   -4.5602   -3.9187 C.3       1 <0>         0.1001
     17 N6          0.0654   -6.0245   -3.9597 N.pl3     1 <0>        -1.1202
     18 S1         -0.3022   -6.8186   -5.3656 S.o2      1 <0>         2.6068
     19 O1         -0.2085   -8.1981   -5.0380 O.2       1 <0>        -0.9413
     20 O2         -1.5373   -6.2564   -5.7872 O.2       1 <0>        -0.9422
     21 C12         1.0197   -6.3593   -6.5198 C.3       1 <0>        -0.5766
     22 C13         0.7841   -7.0327   -7.8472 C.ar      1 <0>        -0.1042
     23 C14         1.3155   -8.2854   -8.0906 C.ar      1 <0>        -0.1038
     24 C15         1.0994   -8.9032   -9.3082 C.ar      1 <0>        -0.1158
     25 C16         0.3514   -8.2685  -10.2822 C.ar      1 <0>        -0.1040
     26 C17        -0.1808   -7.0162  -10.0384 C.ar      1 <0>        -0.1160
     27 C18         0.0318   -6.4003   -8.8192 C.ar      1 <0>        -0.1038
     28 H1          1.0042    1.8801    0.0026 H         1 <0>         0.1011
     29 H2         -0.5455    1.8639   -0.8728 H         1 <0>         0.1006
     30 H3         -0.5286    1.8543    0.9071 H         1 <0>         0.0964
     31 H4          0.0541   -3.7670   -0.0137 H         1 <0>         0.1572
     32 H5          0.0874   -4.7671    1.8145 H         1 <0>         0.2261
     33 H6          0.1007   -5.1960    4.4018 H         1 <0>         0.2322
     34 H7         -1.0022   -0.2677    4.0106 H         1 <0>         0.1249
     35 H8          0.5455   -0.4187    4.8765 H         1 <0>         0.1138
     36 H9          0.5327   -0.0751    3.1301 H         1 <0>         0.1400
     37 H10         0.0147   -2.1182   -3.2476 H         1 <0>         0.4231
     38 H11         0.9442   -4.4558   -1.9637 H         1 <0>         0.0837
     39 H12        -0.8355   -4.4806   -1.9543 H         1 <0>         0.0854
     40 H13        -0.8526   -4.1951   -4.4174 H         1 <0>         0.0964
     41 H14         0.9272   -4.1703   -4.4268 H         1 <0>         0.0801
     42 H15         0.2941   -6.5289   -3.1633 H         1 <0>         0.4203
     43 H16         1.0232   -5.2779   -6.6565 H         1 <0>         0.1397
     44 H17         1.9810   -6.6776   -6.1164 H         1 <0>         0.1435
     45 H18         1.8999   -8.7813   -7.3297 H         1 <0>         0.1304
     46 H19         1.5152   -9.8816   -9.4987 H         1 <0>         0.1320
     47 H20         0.1832   -8.7508  -11.2337 H         1 <0>         0.1308
     48 H21        -0.7648   -6.5201  -10.7994 H         1 <0>         0.1318
     49 H22        -0.3871   -5.4235   -8.6274 H         1 <0>         0.1298
     50 H23         0.0614   -2.9085    5.4976 H         1 <0>         0.4674
@<TRIPOS>BOND
     1    1    2 1
     2    1   28 1
     3    1   29 1
     4    1   30 1
     5    2    7 ar
     6    2    3 ar
     7    3    4 ar
     8    4    5 ar
     9    4   14 1
    10    5    6 ar
    11    5   31 1
    12    6    7 ar
    13    6    8 1
    14    8   12 1
    15    8    9 1
    16    9   10 2
    17    9   32 1
    18   10   11 1
    19   10   33 1
    20   11   12 2
    21   11   50 1
    22   12   13 1
    23   13   34 1
    24   13   35 1
    25   13   36 1
    26   14   15 1
    27   14   37 1
    28   15   16 1
    29   15   38 1
    30   15   39 1
    31   16   17 1
    32   16   40 1
    33   16   41 1
    34   17   18 1
    35   17   42 1
    36   18   19 2
    37   18   20 2
    38   18   21 1
    39   21   22 1
    40   21   43 1
    41   21   44 1
    42   22   27 ar
    43   22   23 ar
    44   23   24 ar
    45   23   45 1
    46   24   25 ar
    47   24   46 1
    48   25   26 ar
    49   25   47 1
    50   26   27 ar
    51   26   48 1
    52   27   49 1
