@<TRIPOS>MOLECULE
ZINC36614031
   53    55     0     0     0
SMALL
USER_CHARGES

@<TRIPOS>ATOM
      1 C1          0.1473    2.1882    0.2429 C.3       1 <0>        -0.0946
      2 C2          0.3232    0.6920    0.2039 C.2       1 <0>         0.2071
      3 C3          0.4729   -0.0003   -0.9965 C.2       1 <0>        -0.3558
      4 S1          0.6321   -1.6732   -0.3921 S.3       1 <0>         0.1624
      5 C4          0.4986   -1.3411    1.2524 C.2       1 <0>         0.2953
      6 N1          0.3494   -0.0283    1.2938 N.2       1 <0>        -0.5300
      7 N2          0.5406   -2.2304    2.3101 N.am      1 <0>        -0.4885
      8 C5          0.4703   -1.7348    3.6869 C.3       1 <0>         0.1144
      9 C6         -0.9784   -1.7909    4.1758 C.3       1 <0>         0.0633
     10 H1         -1.3649   -2.8069    4.0959 H         1 <0>         0.0783
     11 C7         -1.0714   -1.2937    5.6403 C.3       1 <0>        -0.1461
     12 C8         -2.5506   -0.8242    5.6989 C.3       1 <0>        -0.1541
     13 C9         -2.7803   -0.2860    4.2703 C.3       1 <0>         0.0510
     14 O1         -1.7959   -0.8854    3.4174 O.3       1 <0>        -0.3676
     15 C10         0.6464   -3.5532    2.0745 C.2       1 <0>         0.5243
     16 O2          0.5816   -4.3400    2.9950 O.2       1 <0>        -0.4498
     17 C11         0.8450   -4.0545    0.6673 C.3       1 <0>         0.0494
     18 H2          0.1253   -3.5732    0.0052 H         1 <0>         0.1116
     19 C12         2.2651   -3.7235    0.2038 C.3       1 <0>        -0.1930
     20 O3          0.6508   -5.4698    0.6340 O.3       1 <0>        -0.2527
     21 C13         0.2773   -6.0136   -0.5545 C.ar      1 <0>         0.1878
     22 C14         0.2188   -5.2228   -1.6926 C.ar      1 <0>        -0.2028
     23 C15        -0.1606   -5.7778   -2.8995 C.ar      1 <0>        -0.0030
     24 C16        -0.4821   -7.1206   -2.9742 C.ar      1 <0>        -0.0734
     25 C17        -0.4248   -7.9117   -1.8419 C.ar      1 <0>        -0.0053
     26 C18        -0.0407   -7.3626   -0.6326 C.ar      1 <0>        -0.0684
     27 Cl1         0.0375   -8.3575    0.7879 Cl        1 <0>        -0.0123
     28 N3         -0.8886   -7.7119   -4.2686 N.pl3     1 <0>         0.0373
     29 O4         -0.9395   -7.0210   -5.2595 O.2       1 <0>        -0.1503
     30 O5         -1.1699   -8.8858   -4.3352 O.3       1 <0>        -0.1510
     31 C19         0.4927    0.4848   -2.3192 C.2       1 <0>         0.4392
     32 O6          0.3665    1.6743   -2.5319 O.2       1 <0>        -0.4527
     33 C20         0.6703   -0.4718   -3.4700 C.3       1 <0>        -0.1951
     34 H3          1.1242    2.6674    0.3066 H         1 <0>         0.0880
     35 H4         -0.3609    2.5180   -0.6632 H         1 <0>         0.0984
     36 H5         -0.4488    2.4613    1.1137 H         1 <0>         0.0809
     37 H6          1.0948   -2.3561    4.3290 H         1 <0>         0.1128
     38 H7          0.8257   -0.7049    3.7210 H         1 <0>         0.1136
     39 H8         -0.8891   -2.1064    6.3435 H         1 <0>         0.0891
     40 H9         -0.3882   -0.4629    5.8173 H         1 <0>         0.0846
     41 H10        -3.2154   -1.6619    5.9094 H         1 <0>         0.0780
     42 H11        -2.6772   -0.0320    6.4368 H         1 <0>         0.0862
     43 H12        -3.7788   -0.5586    3.9285 H         1 <0>         0.0672
     44 H13        -2.6682    0.7982    4.2611 H         1 <0>         0.0717
     45 H14         2.9809   -4.3136    0.7761 H         1 <0>         0.0981
     46 H15         2.3654   -3.9584   -0.8559 H         1 <0>         0.0962
     47 H16         2.4606   -2.6628    0.3609 H         1 <0>         0.0920
     48 H17         0.4693   -4.1739   -1.6351 H         1 <0>         0.1564
     49 H18        -0.2066   -5.1621   -3.7856 H         1 <0>         0.1680
     50 H19        -0.6764   -8.9602   -1.9028 H         1 <0>         0.1741
     51 H20         0.7664   -1.4876   -3.0866 H         1 <0>         0.0691
     52 H21        -0.1961   -0.4125   -4.1288 H         1 <0>         0.1005
     53 H22         1.5691   -0.2071   -4.0271 H         1 <0>         0.1006
@<TRIPOS>BOND
     1    1    2 1
     2    1   34 1
     3    1   35 1
     4    1   36 1
     5    2    6 1
     6    2    3 2
     7    3    4 1
     8    3   31 1
     9    4    5 1
    10    5    6 2
    11    5    7 1
    12    7    8 1
    13    7   15 am
    14    8    9 1
    15    8   37 1
    16    8   38 1
    17    9   10 1
    18    9   14 1
    19    9   11 1
    20   11   12 1
    21   11   39 1
    22   11   40 1
    23   12   13 1
    24   12   41 1
    25   12   42 1
    26   13   14 1
    27   13   43 1
    28   13   44 1
    29   15   16 2
    30   15   17 1
    31   17   18 1
    32   17   19 1
    33   17   20 1
    34   19   45 1
    35   19   46 1
    36   19   47 1
    37   20   21 1
    38   21   26 ar
    39   21   22 ar
    40   22   23 ar
    41   22   48 1
    42   23   24 ar
    43   23   49 1
    44   24   25 ar
    45   24   28 1
    46   25   26 ar
    47   25   50 1
    48   26   27 1
    49   28   29 2
    50   28   30 1
    51   31   32 2
    52   31   33 1
    53   33   51 1
    54   33   52 1
    55   33   53 1
