@<TRIPOS>MOLECULE
ZINC63362925
   67    72     0     0     0
SMALL
USER_CHARGES

@<TRIPOS>ATOM
      1 C1         -0.0187    1.5258    0.0104 C.3       1 <0>        -0.1654
      2 C2          0.0021   -0.0041    0.0020 C.3       1 <0>         0.1259
      3 H1          0.5293   -0.3651    0.8851 H         1 <0>         0.1366
      4 C3         -1.4117   -0.5257    0.0127 C.2       1 <0>         0.5083
      5 O1         -1.8076   -1.2234   -0.8969 O.2       1 <0>        -0.5096
      6 N1         -2.2363   -0.2169    1.0331 N.am      1 <0>        -0.7129
      7 C4         -3.6107   -0.7239    1.0435 C.3       1 <0>         0.1913
      8 H2         -3.6292   -1.7210    0.6034 H         1 <0>         0.0998
      9 C5         -4.1083   -0.8006    2.4855 C.3       1 <0>        -0.1261
     10 C6         -5.6074   -1.1216    2.4634 C.3       1 <0>        -0.1164
     11 C7         -6.3536    0.1005    1.9317 C.3       1 <0>        -0.0857
     12 C8         -5.7459    0.5693    0.6355 C.ar      1 <0>        -0.0653
     13 C9         -4.4850    0.1943    0.2303 C.ar      1 <0>        -0.1044
     14 C10        -3.9812    0.6684   -0.9738 C.ar      1 <0>        -0.1061
     15 C11        -4.7349    1.5090   -1.7669 C.ar      1 <0>        -0.1262
     16 C12        -6.0022    1.8826   -1.3607 C.ar      1 <0>        -0.1110
     17 C13        -6.5036    1.4134   -0.1657 C.ar      1 <0>        -0.1258
     18 N2          0.6878   -0.4765   -1.2033 N.am      1 <0>        -0.5534
     19 C14         1.7969   -1.2448   -1.1924 C.2       1 <0>         0.5308
     20 O2          2.4110   -1.6313   -0.2212 O.2       1 <0>        -0.4581
     21 C15         2.1135   -1.5240   -2.6449 C.3       1 <0>         0.1298
     22 C16         3.5071   -1.0073   -3.0011 C.3       1 <0>         0.0906
     23 H3          4.0886   -1.7900   -3.4883 H         1 <0>         0.1936
     24 C17         3.3250    0.1790   -3.9367 C.2       1 <0>         0.0642
     25 C18         3.9618    1.2002   -3.3702 C.ar      1 <0>        -0.1231
     26 C19         4.1944    2.5809   -3.8205 C.ar      1 <0>        -0.0775
     27 C20         4.8913    3.3892   -2.9748 C.ar      1 <0>         0.0974
     28 C21         5.3852    2.9793   -1.7277 C.ar      1 <0>        -0.0230
     29 C22         5.2314    1.7306   -1.2178 C.ar      1 <0>        -0.1542
     30 C23         4.4969    0.7627   -2.0444 C.ar      1 <0>         0.3240
     31 N3          4.2175   -0.5019   -1.8242 N.pl3     1 <0>        -0.5715
     32 O3          5.1229    4.6710   -3.3631 O.3       1 <0>        -0.3020
     33 C24         5.8562    5.5002   -2.4594 C.3       1 <0>         0.0131
     34 C25         2.5016    0.1285   -5.2002 C.3       1 <0>        -0.1040
     35 C26         1.1269   -0.4557   -4.8182 C.3       1 <0>         0.1476
     36 N4          1.1274   -0.6990   -3.3728 N.am      1 <0>        -0.6288
     37 C27         0.2877   -0.2038   -2.4528 C.2       1 <0>         0.7104
     38 O4         -0.7185    0.4232   -2.7206 O.2       1 <0>        -0.4861
     39 C28         1.9523   -3.0092   -2.9750 C.3       1 <0>        -0.1528
     40 H4          1.0039    1.9031    0.0027 H         1 <0>         0.0708
     41 H5         -0.5459    1.8868   -0.8726 H         1 <0>         0.0862
     42 H6         -0.5289    1.8773    0.9072 H         1 <0>         0.0916
     43 H7         -1.9197    0.3412    1.7606 H         1 <0>         0.4035
     44 H8         -3.5724   -1.5867    3.0174 H         1 <0>         0.0767
     45 H9         -3.9449    0.1561    2.9816 H         1 <0>         0.0746
     46 H10        -5.7904   -1.9758    1.8115 H         1 <0>         0.0705
     47 H11        -5.9490   -1.3497    3.4730 H         1 <0>         0.0786
     48 H12        -7.3986   -0.1608    1.7650 H         1 <0>         0.0796
     49 H13        -6.2973    0.9037    2.6664 H         1 <0>         0.0793
     50 H14        -2.9910    0.3771   -1.2919 H         1 <0>         0.1334
     51 H15        -4.3362    1.8736   -2.7021 H         1 <0>         0.1187
     52 H16        -6.5975    2.5391   -1.9779 H         1 <0>         0.1224
     53 H17        -7.4938    1.7061    0.1507 H         1 <0>         0.1228
     54 H18         3.8312    2.9355   -4.7737 H         1 <0>         0.1756
     55 H19         5.9224    3.7044   -1.1344 H         1 <0>         0.1679
     56 H20         5.6297    1.4614   -0.2507 H         1 <0>         0.1800
     57 H21         5.9704    6.4949   -2.8902 H         1 <0>         0.1181
     58 H22         5.3174    5.5731   -1.5146 H         1 <0>         0.0645
     59 H23         6.8400    5.0651   -2.2839 H         1 <0>         0.0651
     60 H24         2.3794    1.1331   -5.6050 H         1 <0>         0.1240
     61 H25         2.9873   -0.5133   -5.9353 H         1 <0>         0.1360
     62 H26         0.3405    0.2551   -5.0723 H         1 <0>         0.1257
     63 H27         0.9637   -1.3931   -5.3500 H         1 <0>         0.1065
     64 H28         0.9278   -3.3184   -2.7680 H         1 <0>         0.0948
     65 H29         2.1754   -3.1734   -4.0293 H         1 <0>         0.0982
     66 H30         2.6391   -3.5941   -2.3631 H         1 <0>         0.0963
     67 H31         4.4346   -1.0133   -1.0291 H         1 <0>         0.4647
@<TRIPOS>BOND
     1    1    2 1
     2    1   40 1
     3    1   41 1
     4    1   42 1
     5    2    3 1
     6    2    4 1
     7    2   18 1
     8    4    5 2
     9    4    6 am
    10    6    7 1
    11    6   43 1
    12    7    8 1
    13    7   13 1
    14    7    9 1
    15    9   10 1
    16    9   44 1
    17    9   45 1
    18   10   11 1
    19   10   46 1
    20   10   47 1
    21   11   12 1
    22   11   48 1
    23   11   49 1
    24   12   17 ar
    25   12   13 ar
    26   13   14 ar
    27   14   15 ar
    28   14   50 1
    29   15   16 ar
    30   15   51 1
    31   16   17 ar
    32   16   52 1
    33   17   53 1
    34   18   37 am
    35   18   19 am
    36   19   20 2
    37   19   21 1
    38   21   36 1
    39   21   22 1
    40   21   39 1
    41   22   23 1
    42   22   31 1
    43   22   24 1
    44   24   25 2
    45   24   34 1
    46   25   30 ar
    47   25   26 ar
    48   26   27 ar
    49   26   54 1
    50   27   28 ar
    51   27   32 1
    52   28   29 ar
    53   28   55 1
    54   29   30 ar
    55   29   56 1
    56   30   31 2
    57   31   67 1
    58   32   33 1
    59   33   57 1
    60   33   58 1
    61   33   59 1
    62   34   35 1
    63   34   60 1
    64   34   61 1
    65   35   36 1
    66   35   62 1
    67   35   63 1
    68   36   37 am
    69   37   38 2
    70   39   64 1
    71   39   65 1
    72   39   66 1
