@<TRIPOS>MOLECULE
ZINC31164871
   66    67     0     0     0
SMALL
USER_CHARGES
(2R,3S,4S,5R,6R)-2-[[(2S,3R,4R)-3,4-dihydroxy-4-(hydroxymethyl)tetrahydrofuran-2-yl]oxymethyl]-6-[(3S)-3-ethyl-3-hydroxy-4-methyl-pentoxy]tetrahydropyran-3,4,5-triol
@<TRIPOS>ATOM
      1 C1          5.4781    7.0471   -3.8865 C.3       1 <0>        -0.1538
      2 C2          4.8919    7.8683   -2.7363 C.3       1 <0>        -0.1150
      3 C3          5.8223    7.7852   -1.5245 C.3       1 <0>         0.1578
      4 C4          5.9983    6.3212   -1.1161 C.3       1 <0>        -0.1470
      5 C5          4.6427    5.7378   -0.7125 C.3       1 <0>         0.0597
      6 O1          4.7997    4.3588   -0.3725 O.3       1 <0>        -0.3533
      7 C6          3.5861    3.7153    0.0213 C.3       1 <0>         0.2712
      8 H1          2.8369    3.9151   -0.7589 H         1 <0>         0.0633
      9 C7          3.8473    2.2229    0.2404 C.3       1 <0>         0.1172
     10 H2          4.6737    2.0589    0.9476 H         1 <0>         0.0800
     11 C8          2.5567    1.5516    0.7200 C.3       1 <0>         0.1007
     12 H3          1.7832    1.5579   -0.0621 H         1 <0>         0.0732
     13 C9          2.0739    2.2505    1.9947 C.3       1 <0>         0.0641
     14 H4          2.7697    2.0880    2.8310 H         1 <0>         0.0774
     15 C10         1.8815    3.7423    1.7093 C.3       1 <0>         0.0771
     16 H5          1.1497    3.9049    0.9043 H         1 <0>         0.0801
     17 O2          3.1104    4.2977    1.2365 O.3       1 <0>        -0.3830
     18 C11         1.4578    4.4570    2.9941 C.3       1 <0>         0.0649
     19 O3          1.1657    5.8254    2.7038 O.3       1 <0>        -0.3385
     20 C12         0.7578    6.5868    3.8421 C.3       1 <0>         0.2448
     21 H6          0.0167    5.9510    4.3486 H         1 <0>         0.0840
     22 C13         0.2629    7.9835    3.4056 C.3       1 <0>         0.1161
     23 H7         -0.8160    8.0453    3.2004 H         1 <0>         0.0861
     24 C14         0.7627    8.9253    4.5239 C.3       1 <0>         0.0868
     25 C15         1.5004    7.9861    5.5038 C.3       1 <0>         0.0334
     26 O4          1.8869    6.8456    4.7047 O.3       1 <0>        -0.3762
     27 C16        -0.4180    9.6080    5.2173 C.3       1 <0>         0.0637
     28 O5          0.0687   10.4724    6.2459 O.3       1 <0>        -0.6010
     29 O6          1.6618    9.9007    3.9925 O.3       1 <0>        -0.5589
     30 O7          0.8381    8.3485    2.1494 O.3       1 <0>        -0.5539
     31 O8          0.8317    1.6799    2.4109 O.3       1 <0>        -0.5902
     32 O9          2.8095    0.1728    0.9973 O.3       1 <0>        -0.5915
     33 O10         4.2678    1.6263   -0.9882 O.3       1 <0>        -0.5785
     34 C17         5.2145    8.5699   -0.3602 C.3       1 <0>        -0.1237
     35 C18         6.1448    8.4868    0.8516 C.3       1 <0>        -0.1523
     36 C19         5.0385   10.0339   -0.7686 C.3       1 <0>        -0.1429
     37 O11         7.0945    8.3419   -1.8616 O.3       1 <0>        -0.5770
     38 H8          4.8092    7.1068   -4.7577 H         1 <0>         0.0510
     39 H9          5.5794    5.9975   -3.5732 H         1 <0>         0.0563
     40 H10         6.4671    7.4466   -4.1554 H         1 <0>         0.0634
     41 H11         4.7906    8.9179   -3.0496 H         1 <0>         0.0729
     42 H12         3.9029    7.4688   -2.4674 H         1 <0>         0.0731
     43 H13         6.4054    5.7505   -1.9638 H         1 <0>         0.0815
     44 H14         6.6924    6.2588   -0.2650 H         1 <0>         0.0748
     45 H15         4.2510    6.2873    0.1562 H         1 <0>         0.0693
     46 H16         3.9388    5.8304   -1.5527 H         1 <0>         0.0521
     47 H17         0.5615    3.9701    3.4060 H         1 <0>         0.0672
     48 H18         2.2743    4.4043    3.7293 H         1 <0>         0.0724
     49 H19         2.3754    8.5059    5.9213 H         1 <0>         0.1051
     50 H20         0.8203    7.6998    6.3195 H         1 <0>         0.0706
     51 H21        -0.9849   10.1969    4.4812 H         1 <0>         0.0544
     52 H22        -1.0746    8.8446    5.6601 H         1 <0>         0.0526
     53 H23        -0.6384   11.0522    6.8573 H         1 <0>         0.4193
     54 H24         2.1126   10.6528    4.6567 H         1 <0>         0.4167
     55 H25         0.5902    9.3176    1.6918 H         1 <0>         0.4106
     56 H26         0.3286    2.0563    3.3138 H         1 <0>         0.4126
     57 H27         1.9952   -0.4746    1.3549 H         1 <0>         0.4231
     58 H28         4.5027    0.5523   -1.0260 H         1 <0>         0.4209
     59 H29         4.2352    8.1413   -0.1007 H         1 <0>         0.0799
     60 H30         5.7078    9.0510    1.6887 H         1 <0>         0.0589
     61 H31         7.1241    8.9154    0.5921 H         1 <0>         0.0538
     62 H32         6.2713    7.4343    1.1452 H         1 <0>         0.0582
     63 H33         4.6015   10.5981    0.0685 H         1 <0>         0.0519
     64 H34         4.3697   10.0936   -1.6399 H         1 <0>         0.0542
     65 H35         6.0178   10.4624   -1.0280 H         1 <0>         0.0593
     66 H36         7.8987    8.3701   -1.1116 H         1 <0>         0.3988
@<TRIPOS>BOND
     1    1    2 1
     2    1   38 1
     3    1   39 1
     4    1   40 1
     5    2    3 1
     6    2   41 1
     7    2   42 1
     8    3    4 1
     9    3   34 1
    10    3   37 1
    11    4    5 1
    12    4   43 1
    13    4   44 1
    14    5    6 1
    15    5   45 1
    16    5   46 1
    17    6    7 1
    18    7    8 1
    19    7   17 1
    20    7    9 1
    21    9   10 1
    22    9   11 1
    23    9   33 1
    24   11   12 1
    25   11   13 1
    26   11   32 1
    27   13   14 1
    28   13   15 1
    29   13   31 1
    30   15   16 1
    31   15   17 1
    32   15   18 1
    33   18   19 1
    34   18   47 1
    35   18   48 1
    36   19   20 1
    37   20   21 1
    38   20   26 1
    39   20   22 1
    40   22   23 1
    41   22   24 1
    42   22   30 1
    43   24   25 1
    44   24   27 1
    45   24   29 1
    46   25   26 1
    47   25   49 1
    48   25   50 1
    49   27   28 1
    50   27   51 1
    51   27   52 1
    52   28   53 1
    53   29   54 1
    54   30   55 1
    55   31   56 1
    56   32   57 1
    57   33   58 1
    58   34   35 1
    59   34   36 1
    60   34   59 1
    61   35   60 1
    62   35   61 1
    63   35   62 1
    64   36   63 1
    65   36   64 1
    66   36   65 1
    67   37   66 1
