@<TRIPOS>MOLECULE
ZINC06448546
   29    30     0     0     0
SMALL
USER_CHARGES
N-[2-(difluoromethoxy)phenyl]-4-nitro-1H-pyrazole-3-carboxamide
@<TRIPOS>ATOM
      1 C1          3.6180    7.8673    0.1891 C.ar      1 <0>        -0.1166
      2 C2          3.0098    9.1041    0.3005 C.ar      1 <0>        -0.0966
      3 C3          1.6309    9.2012    0.3219 C.ar      1 <0>        -0.1695
      4 C4          0.8541    8.0575    0.2312 C.ar      1 <0>         0.0764
      5 C5          1.4662    6.8111    0.1184 C.ar      1 <0>         0.1368
      6 C6          2.8506    6.7212    0.1034 C.ar      1 <0>        -0.0986
      7 N1          0.6861    5.6516    0.0263 N.am      1 <0>        -0.6478
      8 C7          1.1880    4.5466   -0.5599 C.2       1 <0>         0.5857
      9 O1          2.2779    4.5853   -1.0975 O.2       1 <0>        -0.4547
     10 C8          0.4142    3.2888   -0.5493 C.2       1 <0>         0.0537
     11 C9          0.8060    2.0541   -1.1191 C.2       1 <0>        -0.1173
     12 C10        -0.2115    1.1987   -0.8637 C.2       1 <0>         0.0960
     13 N2         -1.1542    1.8891   -0.1869 N.pl3     1 <0>        -0.3618
     14 H1         -2.0242    1.5103    0.1287 H         1 <0>         0.4751
     15 N3         -0.7726    3.1025   -0.0067 N.2       1 <0>        -0.2305
     16 N4          2.0639    1.7599   -1.8418 N.pl3     1 <0>         0.0509
     17 O2          2.2667    0.6422   -2.2811 O.2       1 <0>        -0.1793
     18 O3          2.8961    2.6356   -1.9971 O.3       1 <0>        -0.0846
     19 O4         -0.5022    8.1514    0.2525 O.3       1 <0>        -0.3256
     20 C11        -1.0601    9.4617    0.3702 C.3       1 <0>         0.4147
     21 F1         -0.6239   10.0489    1.5627 F         1 <0>        -0.1967
     22 F2         -0.6462   10.2438   -0.7134 F         1 <0>        -0.1960
     23 H2          4.6956    7.7964    0.1735 H         1 <0>         0.1350
     24 H3          3.6136    9.9967    0.3714 H         1 <0>         0.1323
     25 H4          1.1590   10.1687    0.4098 H         1 <0>         0.1379
     26 H5          3.3283    5.7562    0.0206 H         1 <0>         0.1587
     27 H6         -0.2153    5.6437    0.3843 H         1 <0>         0.4202
     28 H7         -0.2619    0.1590   -1.1516 H         1 <0>         0.2190
     29 H8         -2.1480    9.3943    0.3751 H         1 <0>         0.1830
@<TRIPOS>BOND
     1    1    6 ar
     2    1    2 ar
     3    1   23 1
     4    2    3 ar
     5    2   24 1
     6    3    4 ar
     7    3   25 1
     8    4    5 ar
     9    4   19 1
    10    5    6 ar
    11    5    7 1
    12    6   26 1
    13    7    8 am
    14    7   27 1
    15    8    9 2
    16    8   10 1
    17   10   15 2
    18   10   11 1
    19   11   12 2
    20   11   16 1
    21   12   13 1
    22   12   28 1
    23   13   14 1
    24   13   15 1
    25   16   17 2
    26   16   18 1
    27   19   20 1
    28   20   21 1
    29   20   22 1
    30   20   29 1
