@<TRIPOS>MOLECULE
ZINC02923083
   63    66     0     0     0
SMALL
USER_CHARGES
propyl (4R,7S)-7-(4-methoxyphenyl)-2-methyl-4-(3-nitrophenyl)-5-oxo-4,6,7,8-tetrahydro-1H-quinoline-3-carboxylate
@<TRIPOS>ATOM
      1 C1         12.8746   -1.5707    0.5055 C.3       1 <0>        -0.1513
      2 C2         11.3787   -1.3177    0.7038 C.3       1 <0>        -0.1254
      3 C3         10.7374   -0.9709   -0.6413 C.3       1 <0>         0.0667
      4 O1          9.3403   -0.7347   -0.4560 O.3       1 <0>        -0.3477
      5 C4          8.6223   -0.4146   -1.5529 C.2       1 <0>         0.5189
      6 O2          9.1693   -0.3385   -2.6372 O.2       1 <0>        -0.5216
      7 C5          7.2340   -0.1676   -1.4422 C.2       1 <0>        -0.2614
      8 C6          6.5311    0.1503   -2.5431 C.2       1 <0>         0.2419
      9 N1          5.1901    0.4023   -2.4595 N.pl3     1 <0>        -0.6437
     10 C7          4.6155    0.7291   -1.2605 C.2       1 <0>         0.2211
     11 C8          5.2373    0.4328   -0.0996 C.2       1 <0>        -0.2783
     12 C9          6.5741   -0.2649   -0.0981 C.3       1 <0>         0.0814
     13 H1          7.2257    0.2228    0.6419 H         1 <0>         0.1011
     14 C10         6.3728   -1.7172    0.2502 C.ar      1 <0>        -0.0602
     15 C11         5.5956   -2.5217   -0.5623 C.ar      1 <0>        -0.0601
     16 C12         5.4142   -3.8546   -0.2450 C.ar      1 <0>        -0.1203
     17 C13         6.0029   -4.3814    0.8897 C.ar      1 <0>        -0.0607
     18 C14         6.7760   -3.5760    1.7046 C.ar      1 <0>        -0.0430
     19 C15         6.9606   -2.2436    1.3850 C.ar      1 <0>        -0.0270
     20 N2          7.4058   -4.1398    2.9196 N.pl3     1 <0>         0.0287
     21 O3          8.0867   -3.4299    3.6379 O.2       1 <0>        -0.1545
     22 O4          7.2432   -5.3136    3.2011 O.3       1 <0>        -0.1646
     23 C16         4.6571    0.7606    1.1384 C.2       1 <0>         0.4012
     24 O5          5.2506    0.4944    2.1647 O.2       1 <0>        -0.4612
     25 C17         3.3144    1.4349    1.2152 C.3       1 <0>        -0.1615
     26 C18         2.4897    1.0452   -0.0161 C.3       1 <0>        -0.0291
     27 H2          2.2755   -0.0337   -0.0118 H         1 <0>         0.0915
     28 C19         3.2789    1.4287   -1.2699 C.3       1 <0>        -0.0901
     29 C20         1.1757    1.7828    0.0004 C.ar      1 <0>        -0.1233
     30 C21        -0.0126    1.0758    0.0080 C.ar      1 <0>        -0.0691
     31 C22        -1.2185    1.7496    0.0173 C.ar      1 <0>        -0.2058
     32 C23        -1.2366    3.1368    0.0307 C.ar      1 <0>         0.1304
     33 C24        -0.0430    3.8438    0.0236 C.ar      1 <0>        -0.1485
     34 C25         1.1603    3.1653    0.0084 C.ar      1 <0>        -0.0730
     35 O6         -2.4216    3.8019    0.0452 O.3       1 <0>        -0.3168
     36 C26        -3.6105    3.0091    0.0518 C.3       1 <0>         0.0227
     37 C27         7.2260    0.2299   -3.8779 C.3       1 <0>        -0.1188
     38 H3         13.3356   -1.8200    1.4726 H         1 <0>         0.0671
     39 H4         13.3482   -0.6664    0.0958 H         1 <0>         0.0584
     40 H5         13.0153   -2.4076   -0.1944 H         1 <0>         0.0572
     41 H6         10.9051   -2.2220    1.1135 H         1 <0>         0.0728
     42 H7         11.2380   -0.4809    1.4037 H         1 <0>         0.0764
     43 H8         11.2110   -0.0666   -1.0510 H         1 <0>         0.0678
     44 H9         10.8782   -1.8077   -1.3413 H         1 <0>         0.0655
     45 H10         4.5622    0.3434   -3.3607 H         1 <0>         0.4487
     46 H11         5.1327   -2.1093   -1.4467 H         1 <0>         0.1299
     47 H12         4.8098   -4.4839   -0.8815 H         1 <0>         0.1447
     48 H13         5.8584   -5.4221    1.1395 H         1 <0>         0.1515
     49 H14         7.5643   -1.6141    2.0220 H         1 <0>         0.1541
     50 H15         2.7934    1.1114    2.1284 H         1 <0>         0.1014
     51 H16         3.4528    2.5259    1.2390 H         1 <0>         0.1049
     52 H17         3.4350    2.5175   -1.2846 H         1 <0>         0.1066
     53 H18         2.7135    1.1272   -2.1640 H         1 <0>         0.0953
     54 H19         0.0021   -0.0041    0.0020 H         1 <0>         0.1258
     55 H20        -2.1464    1.1970    0.0184 H         1 <0>         0.1296
     56 H21        -0.0545    4.9237    0.0302 H         1 <0>         0.1324
     57 H22         2.0897    3.7153    0.0025 H         1 <0>         0.1296
     58 H23        -4.4909    3.6685    0.0635 H         1 <0>         0.1038
     59 H24        -3.6196    2.3694    0.9466 H         1 <0>         0.0578
     60 H25        -3.6361    2.3792   -0.8496 H         1 <0>         0.0573
     61 H26         6.4965    0.5005   -4.6555 H         1 <0>         0.0653
     62 H27         7.6723   -0.7465   -4.1177 H         1 <0>         0.1023
     63 H28         8.0164    0.9938   -3.8348 H         1 <0>         0.1052
@<TRIPOS>BOND
     1    1    2 1
     2    1   38 1
     3    1   39 1
     4    1   40 1
     5    2    3 1
     6    2   41 1
     7    2   42 1
     8    3    4 1
     9    3   43 1
    10    3   44 1
    11    4    5 1
    12    5    6 2
    13    5    7 1
    14    7   12 1
    15    7    8 2
    16    8    9 1
    17    8   37 1
    18    9   10 1
    19    9   45 1
    20   10   28 1
    21   10   11 2
    22   11   12 1
    23   11   23 1
    24   12   13 1
    25   12   14 1
    26   14   19 ar
    27   14   15 ar
    28   15   16 ar
    29   15   46 1
    30   16   17 ar
    31   16   47 1
    32   17   18 ar
    33   17   48 1
    34   18   19 ar
    35   18   20 1
    36   19   49 1
    37   20   21 2
    38   20   22 1
    39   23   24 2
    40   23   25 1
    41   25   26 1
    42   25   50 1
    43   25   51 1
    44   26   27 1
    45   26   28 1
    46   26   29 1
    47   28   52 1
    48   28   53 1
    49   29   34 ar
    50   29   30 ar
    51   30   31 ar
    52   30   54 1
    53   31   32 ar
    54   31   55 1
    55   32   33 ar
    56   32   35 1
    57   33   34 ar
    58   33   56 1
    59   34   57 1
    60   35   36 1
    61   36   58 1
    62   36   59 1
    63   36   60 1
    64   37   61 1
    65   37   62 1
    66   37   63 1
