@<TRIPOS>MOLECULE
ZINC52569918
   66    71     0     0     0
SMALL
USER_CHARGES

@<TRIPOS>ATOM
      1 C1         -0.2299    3.9882    1.2578 C.3       1 <0>        -0.0754
      2 C2         -0.9601    4.4543    0.0246 C.2       1 <0>         0.0901
      3 C3         -2.3072    4.1697   -0.2924 C.ar      1 <0>        -0.1375
      4 C4         -3.3333    3.4485    0.3299 C.ar      1 <0>        -0.0831
      5 C5         -4.5707    3.3817   -0.2935 C.ar      1 <0>         0.1164
      6 N1         -4.7864    3.9881   -1.4597 N.ar      1 <0>        -0.4091
      7 C6         -3.8522    4.6754   -2.0789 C.ar      1 <0>         0.1245
      8 C7         -2.5809    4.7962   -1.5278 C.ar      1 <0>         0.0774
      9 N2         -1.4235    5.4231   -1.9097 N.pl3     1 <0>        -0.4832
     10 N3         -0.4561    5.1911   -0.9237 N.2       1 <0>        -0.2249
     11 H1         -1.2973    5.9408   -2.7202 H         1 <0>         0.4512
     12 C8         -5.6699    2.6234    0.3479 C.ar      1 <0>        -0.0898
     13 C9         -5.5070    2.0836    1.6277 C.ar      1 <0>        -0.1017
     14 C10        -6.5622    1.3828    2.1873 C.ar      1 <0>        -0.0173
     15 C11        -7.7483    1.2369    1.4631 C.ar      1 <0>         0.4161
     16 N4         -7.8751    1.7574    0.2543 N.ar      1 <0>        -0.4958
     17 C12        -6.8912    2.4412   -0.3171 C.ar      1 <0>         0.2838
     18 C13        -7.0827    3.0116   -1.6708 C.2       1 <0>        -0.1229
     19 C14        -6.6615    2.4233   -2.9480 C.2       1 <0>        -0.1769
     20 C15        -7.0450    3.2901   -3.8998 C.2       1 <0>        -0.0297
     21 O1         -7.6526    4.3362   -3.3196 O.3       1 <0>        -0.1741
     22 C16        -7.6904    4.1857   -1.9882 C.2       1 <0>         0.0381
     23 C17        -8.2999    5.1554   -1.0088 C.3       1 <0>        -0.0748
     24 N5         -8.8106    0.5337    2.0216 N.pl3     1 <0>        -0.8423
     25 O2         -6.4450    0.8413    3.4297 O.3       1 <0>        -0.3255
     26 C18        -5.2010    1.0332    4.1063 C.3       1 <0>         0.0285
     27 C19        -5.2574    0.3586    5.4784 C.3       1 <0>         0.0416
     28 H2         -6.1166    0.7352    6.0334 H         1 <0>         0.1648
     29 C20        -3.9746    0.6687    6.2523 C.3       1 <0>        -0.1048
     30 C21        -4.0815    0.1084    7.6472 C.2       1 <0>        -0.0030
     31 C22        -3.6192   -1.0863    8.0812 C.ar      1 <0>        -0.1435
     32 C23        -2.9068   -2.1802    7.4101 C.ar      1 <0>        -0.0786
     33 C24        -2.5682   -3.2778    8.1240 C.ar      1 <0>        -0.0999
     34 C25        -2.8803   -3.3969    9.4853 C.ar      1 <0>         0.0483
     35 C26        -3.5329   -2.4344   10.1707 C.ar      1 <0>        -0.1927
     36 C27        -3.9366   -1.2363    9.5194 C.ar      1 <0>         0.3308
     37 N6         -4.5704   -0.1756    9.9574 N.pl3     1 <0>        -0.5615
     38 C28        -4.7216    0.7709    8.8466 C.3       1 <0>         0.0601
     39 N7         -5.3854   -1.0945    5.3047 N.4       1 <0>        -0.6424
     40 H3          0.2425    3.0263    1.0585 H         1 <0>         0.0841
     41 H4          0.5330    4.7190    1.5262 H         1 <0>         0.0846
     42 H5         -0.9370    3.8823    2.0805 H         1 <0>         0.0756
     43 H6         -3.1648    2.9543    1.2753 H         1 <0>         0.1297
     44 H7         -4.0738    5.1501   -3.0234 H         1 <0>         0.1659
     45 H8         -4.5798    2.2100    2.1668 H         1 <0>         0.1420
     46 H9         -6.1472    1.4847   -3.0929 H         1 <0>         0.1420
     47 H10        -6.8894    3.1651   -4.9612 H         1 <0>         0.2022
     48 H11        -7.5457    5.8767   -0.6944 H         1 <0>         0.0794
     49 H12        -9.1284    5.6800   -1.4848 H         1 <0>         0.0812
     50 H13        -8.6667    4.6107   -0.1388 H         1 <0>         0.0795
     51 H14        -8.7249    0.1487    2.9078 H         1 <0>         0.4057
     52 H15        -9.6371    0.4283    1.5249 H         1 <0>         0.4141
     53 H16        -4.3958    0.5932    3.5179 H         1 <0>         0.0957
     54 H17        -5.0172    2.1000    4.2332 H         1 <0>         0.1179
     55 H18        -3.1243    0.2154    5.7428 H         1 <0>         0.1366
     56 H19        -3.8336    1.7483    6.3043 H         1 <0>         0.1615
     57 H20        -2.6570   -2.1097    6.3618 H         1 <0>         0.1606
     58 H21        -2.0440   -4.0839    7.6322 H         1 <0>         0.1674
     59 H22        -2.5869   -4.2958   10.0071 H         1 <0>         0.1712
     60 H23        -3.7500   -2.5750   11.2193 H         1 <0>         0.1704
     61 H24        -4.2118    1.7067    9.0756 H         1 <0>         0.1863
     62 H25        -5.7785    0.9555    8.6543 H         1 <0>         0.1786
     63 H26        -5.4225   -1.5394    6.2096 H         1 <0>         0.4284
     64 H27        -6.2314   -1.2991    4.7943 H         1 <0>         0.4546
     65 H28        -4.8836   -0.0379   10.8650 H         1 <0>         0.4649
     66 H29        -4.5900   -1.4431    4.7910 H         1 <0>         0.4384
@<TRIPOS>BOND
     1    1   40 1
     2    1   41 1
     3    1   42 1
     4    1    2 1
     5    2    3 1
     6    2   10 2
     7    3    4 ar
     8    3    8 ar
     9    4    5 ar
    10    4   43 1
    11    5    6 ar
    12    5   12 1
    13    6    7 ar
    14    7    8 ar
    15    7   44 1
    16    8    9 1
    17    9   10 1
    18    9   11 1
    19   12   17 ar
    20   12   13 ar
    21   13   14 ar
    22   13   45 1
    23   14   15 ar
    24   14   25 1
    25   15   16 ar
    26   15   24 1
    27   16   17 ar
    28   17   18 1
    29   18   22 2
    30   18   19 1
    31   19   20 2
    32   19   46 1
    33   20   21 1
    34   20   47 1
    35   21   22 1
    36   22   23 1
    37   23   48 1
    38   23   49 1
    39   23   50 1
    40   24   51 1
    41   24   52 1
    42   25   26 1
    43   26   27 1
    44   26   53 1
    45   26   54 1
    46   27   28 1
    47   27   29 1
    48   27   39 1
    49   29   30 1
    50   29   55 1
    51   29   56 1
    52   30   38 1
    53   30   31 2
    54   31   36 ar
    55   31   32 ar
    56   32   33 ar
    57   32   57 1
    58   33   34 ar
    59   33   58 1
    60   34   35 ar
    61   34   59 1
    62   35   36 ar
    63   35   60 1
    64   36   37 2
    65   37   38 1
    66   37   65 1
    67   38   61 1
    68   38   62 1
    69   39   63 1
    70   39   64 1
    71   39   66 1
