@<TRIPOS>MOLECULE
ZINC04199464
   56    59     0     0     0
SMALL
USER_CHARGES

@<TRIPOS>ATOM
      1 C1         -0.0187    1.5258    0.0104 C.3       1 <0>        -0.1238
      2 C2          0.0021   -0.0041    0.0020 C.3       1 <0>         0.0599
      3 C3          0.7940   -0.5190   -1.1838 C.2       1 <0>         0.5138
      4 O1          0.5592   -0.3433   -2.3603 O.2       1 <0>        -0.4684
      5 N1          1.8175   -1.2153   -0.6456 N.am      1 <0>        -0.5596
      6 C4          1.7515   -1.1913    0.7241 C.2       1 <0>         0.5475
      7 N2          0.7393   -0.5171    1.1678 N.2       1 <0>        -0.5625
      8 O2          2.6483   -1.8062    1.5257 O.3       1 <0>        -0.4515
      9 C5          2.8553   -1.9026   -1.4181 C.3       1 <0>         0.0821
     10 C6          4.0218   -0.9452   -1.6701 C.3       1 <0>         0.0948
     11 H1          3.6511   -0.0393   -2.1498 H         1 <0>         0.1145
     12 C7          5.0486   -1.6211   -2.5809 C.3       1 <0>         0.0298
     13 O3          6.0798   -0.6883   -2.9107 O.3       1 <0>        -0.2990
     14 C8          7.0784   -1.1325   -3.7192 C.ar      1 <0>         0.1233
     15 C9          7.0615   -2.4377   -4.1890 C.ar      1 <0>        -0.1891
     16 C10         8.0753   -2.8892   -5.0106 C.ar      1 <0>        -0.0982
     17 C11         9.1116   -2.0369   -5.3663 C.ar      1 <0>         0.0795
     18 C12         9.1282   -0.7310   -4.8959 C.ar      1 <0>        -0.0983
     19 C13         8.1111   -0.2788   -4.0787 C.ar      1 <0>        -0.1275
     20 N3         10.1425   -2.4954   -6.2009 N.am      1 <0>        -0.5307
     21 C14        10.1892   -3.7570   -6.7025 C.2       1 <0>         0.5422
     22 O4          9.2963   -4.5769   -6.6940 O.2       1 <0>        -0.4539
     23 C15        11.5658   -3.9321   -7.2684 C.3       1 <0>        -0.1291
     24 H2         12.2564   -4.2594   -6.4913 H         1 <0>         0.1310
     25 C16        11.7281   -4.7847   -8.5092 C.3       1 <0>        -0.0687
     26 C17        13.1132   -4.5079   -9.0552 C.2       1 <0>        -0.1544
     27 C18        13.8288   -3.4691   -8.7460 C.2       1 <0>        -0.1529
     28 C19        13.3755   -2.3657   -7.8132 C.3       1 <0>        -0.0695
     29 C20        11.8765   -2.4631   -7.6915 C.3       1 <0>        -0.1300
     30 H3         11.4191   -2.2386   -8.6551 H         1 <0>         0.1307
     31 C21        11.1871   -1.7189   -6.5898 C.2       1 <0>         0.5434
     32 O5         11.5002   -0.6396   -6.1352 O.2       1 <0>        -0.4516
     33 O6          4.6380   -0.6073   -0.4258 O.3       1 <0>        -0.5396
     34 C22        -1.4236   -0.5589   -0.0186 C.3       1 <0>        -0.1230
     35 H4          1.0039    1.9031    0.0027 H         1 <0>         0.0600
     36 H5         -0.5459    1.8868   -0.8726 H         1 <0>         0.0753
     37 H6         -0.5289    1.8773    0.9072 H         1 <0>         0.0822
     38 H7          2.4694   -1.6999    2.4700 H         1 <0>         0.4342
     39 H8          3.2103   -2.7687   -0.8596 H         1 <0>         0.1037
     40 H9          2.4414   -2.2300   -2.3718 H         1 <0>         0.1066
     41 H10         5.4842   -2.4768   -2.0651 H         1 <0>         0.0721
     42 H11         4.5581   -1.9583   -3.4940 H         1 <0>         0.0768
     43 H12         6.2553   -3.1009   -3.9119 H         1 <0>         0.1345
     44 H13         8.0622   -3.9054   -5.3760 H         1 <0>         0.1553
     45 H14         9.9343   -0.0675   -5.1724 H         1 <0>         0.1596
     46 H15         8.1218    0.7385   -3.7160 H         1 <0>         0.1406
     47 H16        11.6337   -5.8395   -8.2510 H         1 <0>         0.0933
     48 H17        10.9751   -4.5127   -9.2489 H         1 <0>         0.0879
     49 H18        13.5340   -5.2219   -9.7477 H         1 <0>         0.1162
     50 H19        14.8130   -3.3870   -9.1830 H         1 <0>         0.1166
     51 H20        13.8252   -2.5017   -6.8296 H         1 <0>         0.0866
     52 H21        13.6565   -1.3947   -8.2209 H         1 <0>         0.0938
     53 H22         4.9915   -1.3669    0.0570 H         1 <0>         0.3772
     54 H23        -1.9336   -0.2170   -0.9191 H         1 <0>         0.0753
     55 H24        -1.3896   -1.6484   -0.0118 H         1 <0>         0.0586
     56 H25        -1.9633   -0.2067    0.8605 H         1 <0>         0.0822
@<TRIPOS>BOND
     1    1    2 1
     2    1   35 1
     3    1   36 1
     4    1   37 1
     5    2    7 1
     6    2    3 1
     7    2   34 1
     8    3    4 2
     9    3    5 am
    10    5    6 1
    11    5    9 1
    12    6    7 2
    13    6    8 1
    14    8   38 1
    15    9   10 1
    16    9   39 1
    17    9   40 1
    18   10   11 1
    19   10   12 1
    20   10   33 1
    21   12   13 1
    22   12   41 1
    23   12   42 1
    24   13   14 1
    25   14   19 ar
    26   14   15 ar
    27   15   16 ar
    28   15   43 1
    29   16   17 ar
    30   16   44 1
    31   17   18 ar
    32   17   20 1
    33   18   19 ar
    34   18   45 1
    35   19   46 1
    36   20   31 am
    37   20   21 am
    38   21   22 2
    39   21   23 1
    40   23   24 1
    41   23   29 1
    42   23   25 1
    43   25   26 1
    44   25   47 1
    45   25   48 1
    46   26   27 2
    47   26   49 1
    48   27   28 1
    49   27   50 1
    50   28   29 1
    51   28   51 1
    52   28   52 1
    53   29   30 1
    54   29   31 1
    55   31   32 2
    56   33   53 1
    57   34   54 1
    58   34   55 1
    59   34   56 1
