@<TRIPOS>MOLECULE
ZINC25247414
   65    67     0     0     0
SMALL
USER_CHARGES
O3,O5-dimethyl O4-[(3E)-2-oxo-3-(1,3,3-trimethylindolin-2-ylidene)propyl] 2,6-dimethyl-1,4-dihydropyridine-3,4,5-tricarboxylate
@<TRIPOS>ATOM
      1 C1          1.4377   -5.5496   -3.5704 C.3       1 <0>        -0.1330
      2 C2          1.3457   -4.0622   -3.3466 C.2       1 <0>         0.2023
      3 C3          2.4563   -3.3656   -3.0494 C.2       1 <0>        -0.2431
      4 C4          2.4104   -1.8832   -2.8094 C.3       1 <0>         0.0602
      5 C5          1.1241   -1.3008   -3.3228 C.2       1 <0>        -0.2611
      6 C6          0.0653   -2.0795   -3.6046 C.2       1 <0>         0.2597
      7 N1          0.1329   -3.4372   -3.4489 N.pl3     1 <0>        -0.6397
      8 C7         -1.2099   -1.4500   -4.1032 C.3       1 <0>        -0.1192
      9 C8          1.0232    0.0976   -3.5079 C.2       1 <0>         0.5289
     10 O1          0.0239    0.5738   -4.0133 O.2       1 <0>        -0.5226
     11 O2          2.0374    0.9033   -3.1293 O.3       1 <0>        -0.3527
     12 C9          1.8676    2.3055   -3.3461 C.3       1 <0>         0.0354
     13 C10         2.5204   -1.6164   -1.3303 C.2       1 <0>         0.4676
     14 O3          1.6425   -1.0152   -0.7579 O.2       1 <0>        -0.4970
     15 O4          3.5938   -2.0466   -0.6488 O.3       1 <0>        -0.3290
     16 C11         3.6328   -1.7540    0.7729 C.3       1 <0>         0.0267
     17 C12         4.9020   -2.3098    1.3656 C.2       1 <0>         0.3899
     18 O5          5.6973   -2.8961    0.6578 O.2       1 <0>        -0.4439
     19 C13         5.1654   -2.1505    2.7334 C.2       1 <0>        -0.3597
     20 C14         6.3565   -2.5470    3.2450 C.2       1 <0>         0.2688
     21 C15         7.4917   -3.1996    2.4851 C.3       1 <0>         0.0075
     22 C16         8.5571   -3.4244    3.5332 C.ar      1 <0>        -0.1308
     23 C17         9.8182   -3.9751    3.4783 C.ar      1 <0>        -0.0632
     24 C18        10.5889   -4.0521    4.6252 C.ar      1 <0>        -0.1399
     25 C19        10.0891   -3.5753    5.8234 C.ar      1 <0>        -0.0865
     26 C20         8.8268   -3.0228    5.8817 C.ar      1 <0>        -0.1421
     27 C21         8.0442   -2.9416    4.7305 C.ar      1 <0>         0.1356
     28 N2          6.7622   -2.4294    4.5378 N.pl3     1 <0>        -0.5279
     29 C22         5.9475   -1.8376    5.6019 C.3       1 <0>         0.0741
     30 C23         7.0391   -4.5331    1.8868 C.3       1 <0>        -0.1517
     31 C24         8.0080   -2.2665    1.3880 C.3       1 <0>        -0.1437
     32 C25         3.6945   -4.0428   -2.9603 C.2       1 <0>         0.5379
     33 O6          4.5152   -3.9301   -3.8517 O.2       1 <0>        -0.4974
     34 O7          3.9661   -4.8140   -1.8867 O.3       1 <0>        -0.3382
     35 C26         5.2361   -5.4687   -1.8627 C.3       1 <0>         0.0334
     36 H1          2.4814   -5.8749   -3.4482 H         1 <0>         0.0872
     37 H2          1.0957   -5.7891   -4.5881 H         1 <0>         0.0924
     38 H3          0.8031   -6.0705   -2.8383 H         1 <0>         0.0941
     39 H4          3.2477   -1.4142   -3.3469 H         1 <0>         0.1220
     40 H5         -0.7949   -4.0266   -3.4061 H         1 <0>         0.4522
     41 H6         -1.9612   -2.2339   -4.2796 H         1 <0>         0.0662
     42 H7         -1.0112   -0.9143   -5.0432 H         1 <0>         0.1103
     43 H8         -1.5881   -0.7424   -3.3507 H         1 <0>         0.1026
     44 H9          2.7616    2.8417   -2.9950 H         1 <0>         0.1002
     45 H10         0.9864    2.6584   -2.7902 H         1 <0>         0.0605
     46 H11         1.7241    2.4957   -4.4200 H         1 <0>         0.0608
     47 H12         3.6039   -0.6648    0.9240 H         1 <0>         0.0979
     48 H13         2.7648   -2.2158    1.2663 H         1 <0>         0.0968
     49 H14         4.4055   -1.7038    3.3914 H         1 <0>         0.1340
     50 H15        10.2051   -4.3472    2.5412 H         1 <0>         0.1280
     51 H16        11.5782   -4.4833    4.5846 H         1 <0>         0.1301
     52 H17        10.6908   -3.6355    6.7183 H         1 <0>         0.1308
     53 H18         8.4437   -2.6519    6.8209 H         1 <0>         0.1233
     54 H19         6.5061   -1.8641    6.5491 H         1 <0>         0.0871
     55 H20         5.0143   -2.4098    5.7104 H         1 <0>         0.0761
     56 H21         5.7104   -0.7946    5.3451 H         1 <0>         0.0767
     57 H22         7.8755   -4.9920    1.3393 H         1 <0>         0.0624
     58 H23         6.2004   -4.3594    1.1966 H         1 <0>         0.1188
     59 H24         6.7160   -5.2065    2.6944 H         1 <0>         0.0440
     60 H25         8.8311   -2.7565    0.8473 H         1 <0>         0.0652
     61 H26         8.3719   -1.3330    1.8419 H         1 <0>         0.0463
     62 H27         7.1921   -2.0392    0.6861 H         1 <0>         0.1049
     63 H28         5.3265   -6.0597   -0.9394 H         1 <0>         0.0999
     64 H29         6.0374   -4.7158   -1.8961 H         1 <0>         0.0681
     65 H30         5.3219   -6.1345   -2.7341 H         1 <0>         0.0554
@<TRIPOS>BOND
     1    1    2 1
     2    1   36 1
     3    1   37 1
     4    1   38 1
     5    2    7 1
     6    2    3 2
     7    3    4 1
     8    3   32 1
     9    4    5 1
    10    4   13 1
    11    4   39 1
    12    5    6 2
    13    5    9 1
    14    6    7 1
    15    6    8 1
    16    7   40 1
    17    8   41 1
    18    8   42 1
    19    8   43 1
    20    9   10 2
    21    9   11 1
    22   11   12 1
    23   12   44 1
    24   12   45 1
    25   12   46 1
    26   13   14 2
    27   13   15 1
    28   15   16 1
    29   16   17 1
    30   16   47 1
    31   16   48 1
    32   17   18 2
    33   17   19 1
    34   19   20 2
    35   19   49 1
    36   20   28 1
    37   20   21 1
    38   21   22 1
    39   21   30 1
    40   21   31 1
    41   22   27 ar
    42   22   23 ar
    43   23   24 ar
    44   23   50 1
    45   24   25 ar
    46   24   51 1
    47   25   26 ar
    48   25   52 1
    49   26   27 ar
    50   26   53 1
    51   27   28 1
    52   28   29 1
    53   29   54 1
    54   29   55 1
    55   29   56 1
    56   30   57 1
    57   30   58 1
    58   30   59 1
    59   31   60 1
    60   31   61 1
    61   31   62 1
    62   32   33 2
    63   32   34 1
    64   34   35 1
    65   35   63 1
    66   35   64 1
    67   35   65 1
