@<TRIPOS>MOLECULE
ZINC32779022
   41    42     0     0     0
SMALL
USER_CHARGES
6-[(1S)-1-[(4-allyl-5-amino-1,2,4-triazol-3-yl)sulfanyl]ethyl]-N4,N4-dimethyl-1,3,5-triazine-2,4-diamine
@<TRIPOS>ATOM
      1 C1         -0.0127    1.0858    0.0080 C.3       1 <0>        -0.1459
      2 C2         -0.7288    1.5792    1.2668 C.3       1 <0>        -0.0161
      3 H1         -0.0543    1.3207    2.0964 H         1 <0>         0.1346
      4 C3         -0.7493    3.0861    1.2751 C.ar      1 <0>         0.4443
      5 N1         -1.5759    3.7384    0.4764 N.ar      1 <0>        -0.6296
      6 C4         -1.5972    5.0692    0.4812 C.ar      1 <0>         0.6347
      7 N2         -0.7859    5.7419    1.2903 N.ar      1 <0>        -0.6542
      8 C5          0.0435    5.0827    2.0917 C.ar      1 <0>         0.6293
      9 N3          0.0554    3.7515    2.0848 N.ar      1 <0>        -0.6269
     10 N4          0.8880    5.7768    2.9339 N.pl3     1 <0>        -0.5803
     11 C6          0.8702    7.2417    2.9447 C.3       1 <0>         0.1035
     12 C7          1.8023    5.0489    3.8173 C.3       1 <0>         0.1015
     13 N5         -2.4603    5.7494   -0.3535 N.pl3     1 <0>        -0.8293
     14 S1         -2.4307    0.9514    1.2797 S.3       1 <0>         0.0672
     15 C8         -2.2397   -0.7948    1.4175 C.2       1 <0>         0.1865
     16 N6         -1.1022   -1.4428    1.4850 N.2       1 <0>        -0.3005
     17 N7         -1.3887   -2.8103    1.5888 N.2       1 <0>        -0.3777
     18 C9         -2.6910   -2.9537    1.5731 C.2       1 <0>         0.4983
     19 N8         -3.2515   -1.7124    1.4669 N.pl3     1 <0>        -0.5036
     20 C10        -4.6854   -1.4167    1.4150 C.3       1 <0>         0.1312
     21 C11        -5.1481   -1.4235   -0.0192 C.2       1 <0>        -0.1844
     22 C12        -6.1436   -2.1935   -0.3827 C.2       1 <0>        -0.1649
     23 N9         -3.3807   -4.1568    1.6509 N.pl3     1 <0>        -0.8548
     24 H2          0.0022   -0.0141    0.0020 H         1 <0>         0.0887
     25 H3          1.0193    1.4666    0.0002 H         1 <0>         0.0685
     26 H4         -0.5448    1.4502   -0.8831 H         1 <0>         0.0714
     27 H5          1.6059    7.6119    3.6739 H         1 <0>         0.0795
     28 H6         -0.1334    7.5941    3.2251 H         1 <0>         0.0628
     29 H7          1.1247    7.6189    1.9432 H         1 <0>         0.0628
     30 H8          2.3903    5.7666    4.4082 H         1 <0>         0.0795
     31 H9          2.4806    4.4291    3.2126 H         1 <0>         0.0651
     32 H10         1.2225    4.4045    4.4944 H         1 <0>         0.0652
     33 H11        -2.4773    6.8493   -0.3489 H         1 <0>         0.4392
     34 H12        -3.1313    5.1917   -1.0234 H         1 <0>         0.4419
     35 H13        -5.2380   -2.1802    1.9822 H         1 <0>         0.0956
     36 H14        -4.8717   -0.4262    1.8557 H         1 <0>         0.1061
     37 H15        -4.6499   -0.7818   -0.7608 H         1 <0>         0.1232
     38 H16        -6.4813   -2.1984   -1.4296 H         1 <0>         0.1102
     39 H17        -6.6418   -2.8352    0.3589 H         1 <0>         0.1025
     40 H18        -4.4805   -4.1627    1.6288 H         1 <0>         0.4252
     41 H19        -2.8272   -5.1037    1.7346 H         1 <0>         0.4497
@<TRIPOS>BOND
     1    1    2 1
     2    1   24 1
     3    1   25 1
     4    1   26 1
     5    2    3 1
     6    2    4 1
     7    2   14 1
     8    4    9 ar
     9    4    5 ar
    10    5    6 ar
    11    6    7 ar
    12    6   13 1
    13    7    8 ar
    14    8    9 ar
    15    8   10 1
    16   10   11 1
    17   10   12 1
    18   11   27 1
    19   11   28 1
    20   11   29 1
    21   12   30 1
    22   12   31 1
    23   12   32 1
    24   13   33 1
    25   13   34 1
    26   14   15 1
    27   15   19 1
    28   15   16 2
    29   16   17 1
    30   17   18 2
    31   18   19 1
    32   18   23 1
    33   19   20 1
    34   20   21 1
    35   20   35 1
    36   20   36 1
    37   21   22 2
    38   21   37 1
    39   22   38 1
    40   22   39 1
    41   23   40 1
    42   23   41 1
