@<TRIPOS>MOLECULE
ZINC46892154
   67    71     0     0     0
SMALL
USER_CHARGES

@<TRIPOS>ATOM
      1 C1          1.6827    3.0304   -3.1237 C.3       1 <0>        -0.1510
      2 C2          1.9582    1.5317   -2.9858 C.3       1 <0>         0.0752
      3 H1          2.1026    1.0956   -3.9742 H         1 <0>         0.0716
      4 C3          0.7689    0.8538   -2.2958 C.3       1 <0>         0.0767
      5 N1          1.1339   -0.5421   -2.0070 N.pl3     1 <0>        -0.5874
      6 C4          2.4079   -0.7951   -1.3154 C.3       1 <0>         0.0644
      7 C5          3.5173   -0.0369   -2.0532 C.3       1 <0>         0.0782
      8 H2          3.6679   -0.4793   -3.0379 H         1 <0>         0.0707
      9 O1          3.1355    1.3330   -2.1995 O.3       1 <0>        -0.3588
     10 C6          4.8166   -0.1233   -1.2499 C.3       1 <0>        -0.1524
     11 C7          0.2996   -1.5909   -2.3762 C.ar      1 <0>         0.4491
     12 C8         -0.9525   -1.3179   -2.9182 C.ar      1 <0>        -0.1964
     13 C9         -1.7723   -2.3709   -3.2811 C.ar      1 <0>         0.0528
     14 C10        -1.3109   -3.6668   -3.0893 C.ar      1 <0>        -0.1591
     15 C11        -0.0575   -3.8647   -2.5463 C.ar      1 <0>         0.1670
     16 N2          0.7056   -2.8406   -2.2140 N.ar      1 <0>        -0.5066
     17 C12        -2.1703   -4.8448   -3.4697 C.3       1 <0>         0.1636
     18 N3         -1.8991   -5.2184   -4.8600 N.am      1 <0>        -0.7367
     19 C13        -2.5567   -6.2528   -5.4204 C.2       1 <0>         0.5273
     20 O2         -3.3730   -6.8743   -4.7737 O.2       1 <0>        -0.5126
     21 C14        -2.2776   -6.6371   -6.8507 C.3       1 <0>        -0.1255
     22 H3         -1.2265   -6.9052   -6.9569 H         1 <0>         0.1079
     23 C15        -2.5989   -5.4558   -7.7690 C.3       1 <0>        -0.1105
     24 C16        -2.2848   -5.8339   -9.2183 C.3       1 <0>        -0.1398
     25 C17        -3.1600   -7.0208   -9.6332 C.3       1 <0>         0.0948
     26 N4         -2.9649   -8.1121   -8.6690 N.pl3     1 <0>        -0.5804
     27 C18        -3.1521   -7.8336   -7.2385 C.3       1 <0>         0.1397
     28 C19        -2.6130   -9.3733   -9.0979 C.2       1 <0>         0.5187
     29 N5         -3.0383  -10.4217   -8.4677 N.2       1 <0>        -0.8653
     30 S1         -2.4025  -11.7362   -9.2856 S.o2      1 <0>         2.5766
     31 O3         -1.4573  -12.3629   -8.4294 O.2       1 <0>        -0.9387
     32 O4         -3.4815  -12.4269   -9.9004 O.2       1 <0>        -0.9331
     33 C20        -1.5026  -10.8950  -10.5594 C.ar      1 <0>        -0.6165
     34 C21        -1.7549   -9.5443  -10.2803 C.ar      1 <0>        -0.1237
     35 C22        -1.1743   -8.5906  -11.1299 C.ar      1 <0>        -0.0626
     36 C23        -0.3948   -8.9894  -12.1928 C.ar      1 <0>        -0.0867
     37 C24        -0.1676  -10.3302  -12.4457 C.ar      1 <0>        -0.0886
     38 C25        -0.7264  -11.2875  -11.6101 C.ar      1 <0>         0.0082
     39 H4          2.5295    3.5119   -3.6127 H         1 <0>         0.0804
     40 H5          0.7839    3.1810   -3.7217 H         1 <0>         0.0819
     41 H6          1.5384    3.4658   -2.1349 H         1 <0>         0.0740
     42 H7          0.5394    1.3733   -1.3654 H         1 <0>         0.1074
     43 H8         -0.0997    0.8776   -2.9539 H         1 <0>         0.1117
     44 H9          2.3434   -0.4417   -0.2863 H         1 <0>         0.1125
     45 H10         2.6247   -1.8633   -1.3244 H         1 <0>         0.0874
     46 H11         5.1048   -1.1684   -1.1364 H         1 <0>         0.0794
     47 H12         5.6050    0.4160   -1.7751 H         1 <0>         0.0821
     48 H13         4.6658    0.3209   -0.2660 H         1 <0>         0.0749
     49 H14        -1.2798   -0.2976   -3.0533 H         1 <0>         0.1821
     50 H15        -2.7494   -2.1897   -3.7039 H         1 <0>         0.1774
     51 H16         0.3050   -4.8708   -2.3950 H         1 <0>         0.2087
     52 H17        -1.9425   -5.6869   -2.8161 H         1 <0>         0.0955
     53 H18        -3.2216   -4.5769   -3.3639 H         1 <0>         0.1002
     54 H19        -1.2462   -4.7213   -5.3773 H         1 <0>         0.4021
     55 H20        -3.6556   -5.2037   -7.6803 H         1 <0>         0.0793
     56 H21        -1.9951   -4.5958   -7.4791 H         1 <0>         0.0725
     57 H22        -2.4917   -4.9843   -9.8690 H         1 <0>         0.0925
     58 H23        -1.2337   -6.1099   -9.3027 H         1 <0>         0.0755
     59 H24        -4.2073   -6.7190   -9.6366 H         1 <0>         0.0893
     60 H25        -2.8713   -7.3572  -10.6291 H         1 <0>         0.0999
     61 H26        -2.8582   -8.7057   -6.6544 H         1 <0>         0.1059
     62 H27        -4.1990   -7.5986   -7.0464 H         1 <0>         0.0899
     63 H28        -1.3398   -7.5387  -10.9497 H         1 <0>         0.1455
     64 H29         0.0455   -8.2441  -12.8387 H         1 <0>         0.1452
     65 H30         0.4455  -10.6297  -13.2829 H         1 <0>         0.1492
     66 H31        -0.5568  -12.3375  -11.7975 H         1 <0>         0.1471
     67 H32         1.5840   -3.0075   -1.8380 H         1 <0>         0.4399
@<TRIPOS>BOND
     1    1    2 1
     2    1   39 1
     3    1   40 1
     4    1   41 1
     5    2    3 1
     6    2    9 1
     7    2    4 1
     8    4    5 1
     9    4   42 1
    10    4   43 1
    11    5    6 1
    12    5   11 1
    13    6    7 1
    14    6   44 1
    15    6   45 1
    16    7    8 1
    17    7    9 1
    18    7   10 1
    19   10   46 1
    20   10   47 1
    21   10   48 1
    22   11   16 ar
    23   11   12 ar
    24   12   13 ar
    25   12   49 1
    26   13   14 ar
    27   13   50 1
    28   14   15 ar
    29   14   17 1
    30   15   16 ar
    31   15   51 1
    32   16   67 1
    33   17   18 1
    34   17   52 1
    35   17   53 1
    36   18   19 am
    37   18   54 1
    38   19   20 2
    39   19   21 1
    40   21   22 1
    41   21   27 1
    42   21   23 1
    43   23   24 1
    44   23   55 1
    45   23   56 1
    46   24   25 1
    47   24   57 1
    48   24   58 1
    49   25   26 1
    50   25   59 1
    51   25   60 1
    52   26   27 1
    53   26   28 1
    54   27   61 1
    55   27   62 1
    56   28   34 1
    57   28   29 2
    58   29   30 1
    59   30   31 2
    60   30   32 2
    61   30   33 1
    62   33   38 ar
    63   33   34 ar
    64   34   35 ar
    65   35   36 ar
    66   35   63 1
    67   36   37 ar
    68   36   64 1
    69   37   38 ar
    70   37   65 1
    71   38   66 1
