@<TRIPOS>MOLECULE
ZINC64482311
   60    64     0     0     0
SMALL
USER_CHARGES

@<TRIPOS>ATOM
      1 C1         -0.0803    1.6152    0.0833 C.3       1 <0>        -0.1430
      2 C2          0.0211    0.1169   -0.0427 C.2       1 <0>         0.2752
      3 C3         -1.1043   -0.6164   -0.0798 C.2       1 <0>        -0.3444
      4 C4         -1.0847   -2.0249   -0.1673 C.2       1 <0>         0.5768
      5 O1         -2.1330   -2.6430   -0.2136 O.2       1 <0>        -0.5447
      6 N1          0.0839   -2.6881   -0.2002 N.am      1 <0>        -0.5641
      7 C5          0.1404   -4.0698   -0.1361 C.2       1 <0>         0.1116
      8 C6          1.1672   -4.6215    0.5403 C.2       1 <0>        -0.1910
      9 C7          2.1474   -3.7331    1.1825 C.2       1 <0>        -0.0712
     10 C8          2.2402   -2.4581    0.8064 C.2       1 <0>        -0.2296
     11 C9          1.3379   -1.9239   -0.2735 C.3       1 <0>         0.4066
     12 H1          1.8071   -2.1421   -1.2329 H         1 <0>         0.0867
     13 N2          1.2568   -0.4651   -0.1224 N.pl3     1 <0>        -0.7032
     14 C10        -2.4343    0.0900   -0.0256 C.3       1 <0>         0.0427
     15 C11        -2.9215    0.3519   -1.4274 C.2       1 <0>         0.2215
     16 N3         -2.5532    1.3326   -2.2023 N.2       1 <0>        -0.2895
     17 N4         -3.1634    1.2563   -3.3308 N.2       1 <0>        -0.2999
     18 C12        -3.9611    0.2136   -3.3369 C.2       1 <0>         0.1176
     19 N5         -3.8277   -0.3990   -2.1240 N.pl3     1 <0>        -0.4418
     20 C13        -4.5149   -1.6080   -1.6632 C.3       1 <0>         0.0501
     21 S1         -5.0020   -0.3016   -4.6619 S.3       1 <0>         0.0883
     22 C14        -4.6995    0.9278   -5.9610 C.3       1 <0>        -0.1546
     23 C15        -5.5399    0.6000   -7.1683 C.2       1 <0>         0.5484
     24 O2         -6.2709   -0.3677   -7.1537 O.2       1 <0>        -0.4691
     25 N6         -5.4791    1.3822   -8.2642 N.am      1 <0>        -0.7643
     26 C16        -6.2961    1.0636   -9.4378 C.3       1 <0>         0.1031
     27 C17        -6.0410    2.1005  -10.5335 C.3       1 <0>         0.2440
     28 N7         -4.6111    2.1424  -10.8647 N.pl3     1 <0>        -0.4681
     29 C18        -4.1861    3.3459  -10.6092 C.ar      1 <0>         0.3180
     30 C19        -2.8706    3.9885  -10.7344 C.ar      1 <0>        -0.1400
     31 C20        -2.7264    5.2824  -10.3846 C.ar      1 <0>         0.0397
     32 C21        -3.7924    6.0592   -9.8971 C.ar      1 <0>         0.0386
     33 C22        -5.0384    5.5684   -9.7430 C.ar      1 <0>        -0.1391
     34 C23        -5.3146    4.1684  -10.0936 C.ar      1 <0>         0.3182
     35 N8         -6.3935    3.4415  -10.0503 N.pl3     1 <0>        -0.4672
     36 H2          0.9203    2.0475    0.0933 H         1 <0>         0.0765
     37 H3         -0.6400    2.0140   -0.7627 H         1 <0>         0.1094
     38 H4         -0.5945    1.8678    1.0106 H         1 <0>         0.0983
     39 H5         -0.6112   -4.6833   -0.6106 H         1 <0>         0.1617
     40 H6          1.2679   -5.6945    0.6098 H         1 <0>         0.1445
     41 H7          2.7927   -4.1143    1.9601 H         1 <0>         0.1319
     42 H8          2.9628   -1.8077    1.2767 H         1 <0>         0.1319
     43 H9          2.0622    0.0737   -0.0765 H         1 <0>         0.4297
     44 H10        -3.1566   -0.5351    0.4993 H         1 <0>         0.0976
     45 H11        -2.3216    1.0368    0.5027 H         1 <0>         0.1090
     46 H12        -5.4933   -1.3402   -1.2644 H         1 <0>         0.0856
     47 H13        -4.6393   -2.2962   -2.4993 H         1 <0>         0.0875
     48 H14        -3.9233   -2.0873   -0.8831 H         1 <0>         0.1336
     49 H15        -4.9643    1.9187   -5.5923 H         1 <0>         0.1311
     50 H16        -3.6452    0.9126   -6.2373 H         1 <0>         0.1301
     51 H17        -4.8945    2.1562   -8.2758 H         1 <0>         0.3913
     52 H18        -6.0313    0.0726   -9.8066 H         1 <0>         0.1539
     53 H19        -7.3504    1.0787   -9.1615 H         1 <0>         0.1532
     54 H20        -6.6245    1.8573  -11.4214 H         1 <0>         0.2560
     55 H21        -2.0247    3.4278  -11.1039 H         1 <0>         0.2077
     56 H22        -1.7533    5.7405  -10.4823 H         1 <0>         0.2059
     57 H23        -3.6053    7.0902   -9.6353 H         1 <0>         0.2060
     58 H24        -5.8285    6.1999   -9.3643 H         1 <0>         0.2080
     59 H25        -4.0803    1.4077  -11.2102 H         1 <0>         0.4986
     60 H26        -7.2700    3.7324   -9.7535 H         1 <0>         0.4987
@<TRIPOS>BOND
     1    1    2 1
     2    1   36 1
     3    1   37 1
     4    1   38 1
     5    2   13 1
     6    2    3 2
     7    3    4 1
     8    3   14 1
     9    4    5 2
    10    4    6 am
    11    6   11 1
    12    6    7 1
    13    7    8 2
    14    7   39 1
    15    8    9 1
    16    8   40 1
    17    9   10 2
    18    9   41 1
    19   10   11 1
    20   10   42 1
    21   11   12 1
    22   11   13 1
    23   13   43 1
    24   14   15 1
    25   14   44 1
    26   14   45 1
    27   15   19 1
    28   15   16 2
    29   16   17 1
    30   17   18 2
    31   18   19 1
    32   18   21 1
    33   19   20 1
    34   20   46 1
    35   20   47 1
    36   20   48 1
    37   21   22 1
    38   22   23 1
    39   22   49 1
    40   22   50 1
    41   23   24 2
    42   23   25 am
    43   25   26 1
    44   25   51 1
    45   26   27 1
    46   26   52 1
    47   26   53 1
    48   27   35 1
    49   27   28 1
    50   27   54 1
    51   28   29 2
    52   28   59 1
    53   29   34 ar
    54   29   30 ar
    55   30   31 ar
    56   30   55 1
    57   31   32 ar
    58   31   56 1
    59   32   33 ar
    60   32   57 1
    61   33   34 ar
    62   33   58 1
    63   34   35 2
    64   35   60 1
