@<TRIPOS>MOLECULE
ZINC03085949
   56    58     0     0     0
SMALL
USER_CHARGES
2-[(5-chloro-2-methoxy-phenyl)-phenylsulfonyl-amino]-N-[(4-hydroxy-3-methoxy-phenyl)methyleneamino]acetamide
@<TRIPOS>ATOM
      1 C1          0.5595   -1.3087   -3.4417 C.3       1 <0>         0.0224
      2 O1          1.8378   -1.1885   -2.8144 O.3       1 <0>        -0.3030
      3 C2          2.6660   -2.2650   -2.8890 C.ar      1 <0>         0.1379
      4 C3          2.2571   -3.4105   -3.5514 C.ar      1 <0>        -0.1941
      5 C4          3.0998   -4.5043   -3.6272 C.ar      1 <0>        -0.0540
      6 C5          4.3529   -4.4584   -3.0423 C.ar      1 <0>        -0.0679
      7 C6          4.7705   -3.3158   -2.3839 C.ar      1 <0>        -0.0429
      8 C7          3.9274   -2.2174   -2.2996 C.ar      1 <0>         0.1045
      9 N1          4.3452   -1.0621   -1.6290 N.pl3     1 <0>        -0.9191
     10 C8          5.1466   -0.0568   -2.3314 C.3       1 <0>         0.1126
     11 C9          6.6020   -0.4434   -2.2719 C.2       1 <0>         0.5155
     12 O2          6.9369   -1.4589   -1.6990 O.2       1 <0>        -0.4845
     13 N2          7.5315    0.3392   -2.8551 N.am      1 <0>        -0.5816
     14 N3          8.8845   -0.0202   -2.7998 N.2       1 <0>        -0.2183
     15 C10         9.7795    0.7333   -3.3614 C.2       1 <0>         0.1090
     16 C11        11.2033    0.3552   -3.3032 C.ar      1 <0>        -0.0264
     17 C12        11.5915   -0.8111   -2.6389 C.ar      1 <0>        -0.0962
     18 C13        12.9231   -1.1660   -2.5906 C.ar      1 <0>        -0.1107
     19 C14        13.8810   -0.3617   -3.1909 C.ar      1 <0>         0.0934
     20 C15        13.5019    0.8059   -3.8497 C.ar      1 <0>         0.0989
     21 C16        12.1683    1.1652   -3.9073 C.ar      1 <0>        -0.1674
     22 O3         14.4438    1.5919   -4.4365 O.3       1 <0>        -0.3061
     23 C17        13.9839    2.7739   -5.0949 C.3       1 <0>         0.0233
     24 O4         15.1929   -0.7135   -3.1358 O.3       1 <0>        -0.4860
     25 S1          3.9337   -0.8316   -0.0416 S.o2      1 <0>         2.6844
     26 O5          4.9016    0.0541    0.5043 O.2       1 <0>        -0.9446
     27 O6          3.6857   -2.1197    0.5048 O.2       1 <0>        -0.9356
     28 C18         2.3960    0.0285   -0.0217 C.ar      1 <0>        -0.6659
     29 C19         1.2084   -0.6789   -0.0136 C.ar      1 <0>        -0.0011
     30 C20         0.0021   -0.0041    0.0020 C.ar      1 <0>        -0.1408
     31 C21        -0.0167    1.3781    0.0096 C.ar      1 <0>        -0.0609
     32 C22         1.1709    2.0855    0.0021 C.ar      1 <0>        -0.1397
     33 C23         2.3773    1.4107   -0.0136 C.ar      1 <0>        -0.0203
     34 Cl1         5.4059   -5.8350   -3.1410 Cl        1 <0>        -0.0579
     35 H1          0.0090   -2.1337   -2.9894 H         1 <0>         0.0601
     36 H2          0.0006   -0.3825   -3.3081 H         1 <0>         0.1026
     37 H3          0.6937   -1.5018   -4.5060 H         1 <0>         0.0601
     38 H4          1.2798   -3.4494   -4.0093 H         1 <0>         0.1453
     39 H5          2.7793   -5.3965   -4.1445 H         1 <0>         0.1423
     40 H6          5.7507   -3.2804   -1.9319 H         1 <0>         0.1619
     41 H7          4.8279   -0.0005   -3.3723 H         1 <0>         0.1226
     42 H8          5.0089    0.9144   -1.8562 H         1 <0>         0.1225
     43 H9          7.2637    1.1512   -3.3132 H         1 <0>         0.3879
     44 H10         9.4814    1.6374   -3.8715 H         1 <0>         0.1226
     45 H11        10.8484   -1.4367   -2.1670 H         1 <0>         0.1430
     46 H12        13.2216   -2.0698   -2.0804 H         1 <0>         0.1421
     47 H13        11.8731    2.0697   -4.4183 H         1 <0>         0.1382
     48 H14        13.2927    2.5002   -5.8921 H         1 <0>         0.0569
     49 H15        13.4738    3.4151   -4.3760 H         1 <0>         0.0566
     50 H16        14.8343    3.3080   -5.5188 H         1 <0>         0.1028
     51 H17        15.6626   -0.3615   -2.3673 H         1 <0>         0.3904
     52 H18         1.2231   -1.7587   -0.0199 H         1 <0>         0.1341
     53 H19        -0.9258   -0.5567    0.0079 H         1 <0>         0.1316
     54 H20        -0.9592    1.9054    0.0170 H         1 <0>         0.1305
     55 H21         1.1563    3.1654    0.0077 H         1 <0>         0.1326
     56 H22         3.3051    1.9634   -0.0195 H         1 <0>         0.1368
@<TRIPOS>BOND
     1    1    2 1
     2    1   35 1
     3    1   36 1
     4    1   37 1
     5    2    3 1
     6    3    8 ar
     7    3    4 ar
     8    4    5 ar
     9    4   38 1
    10    5    6 ar
    11    5   39 1
    12    6    7 ar
    13    6   34 1
    14    7    8 ar
    15    7   40 1
    16    8    9 1
    17    9   10 1
    18    9   25 1
    19   10   11 1
    20   10   41 1
    21   10   42 1
    22   11   12 2
    23   11   13 am
    24   13   14 1
    25   13   43 1
    26   14   15 2
    27   15   16 1
    28   15   44 1
    29   16   21 ar
    30   16   17 ar
    31   17   18 ar
    32   17   45 1
    33   18   19 ar
    34   18   46 1
    35   19   20 ar
    36   19   24 1
    37   20   21 ar
    38   20   22 1
    39   21   47 1
    40   22   23 1
    41   23   48 1
    42   23   49 1
    43   23   50 1
    44   24   51 1
    45   25   26 2
    46   25   27 2
    47   25   28 1
    48   28   33 ar
    49   28   29 ar
    50   29   30 ar
    51   29   52 1
    52   30   31 ar
    53   30   53 1
    54   31   32 ar
    55   31   54 1
    56   32   33 ar
    57   32   55 1
    58   33   56 1
