@<TRIPOS>MOLECULE
ZINC35165351
   34    35     0     0     0
SMALL
USER_CHARGES

@<TRIPOS>ATOM
      1 C1         -0.0187    1.5258    0.0104 C.3       1 <0>        -0.1564
      2 C2          0.0021   -0.0041    0.0020 C.3       1 <0>        -0.1504
      3 C3          0.7182   -0.4975   -1.2568 C.3       1 <0>        -0.0099
      4 N1          0.7381   -1.9663   -1.2649 N.4       1 <0>        -0.3871
      5 C4          1.5484   -2.4509   -0.1396 C.3       1 <0>        -0.0057
      6 C5          1.5540   -3.9812   -0.1366 C.3       1 <0>         0.0285
      7 N2          2.1082   -4.4687   -1.4075 N.3       1 <0>        -0.5324
      8 C6          1.3217   -3.9711   -2.5450 C.3       1 <0>         0.0162
      9 C7          1.3180   -2.4409   -2.5282 C.3       1 <0>        -0.0008
     10 C8          2.1830   -5.9358   -1.4209 C.3       1 <0>         0.1360
     11 C9          2.9738   -6.3875   -2.6216 C.2       1 <0>         0.0212
     12 C10         2.3935   -6.6449   -3.8237 C.2       1 <0>        -0.2361
     13 S1          3.7139   -7.0960   -4.7586 S.3       1 <0>         0.4747
     14 N3          4.8851   -6.9493   -3.6520 N.2       1 <0>        -0.2229
     15 N4          4.2788   -6.5569   -2.5861 N.2       1 <0>        -0.2194
     16 Cl1         0.7208   -6.5361   -4.2753 Cl        1 <0>         0.0523
     17 H1          1.0039    1.9031    0.0027 H         1 <0>         0.0674
     18 H2         -0.5459    1.8868   -0.8726 H         1 <0>         0.0671
     19 H3         -0.5289    1.8773    0.9072 H         1 <0>         0.0777
     20 H4          0.5293   -0.3651    0.8851 H         1 <0>         0.0863
     21 H5         -1.0205   -0.3814    0.0098 H         1 <0>         0.0853
     22 H6          0.1910   -0.1364   -2.1398 H         1 <0>         0.1312
     23 H7          1.7408   -0.1202   -1.2645 H         1 <0>         0.1311
     24 H8          2.5696   -2.0841   -0.2428 H         1 <0>         0.1395
     25 H9          1.1246   -2.0873    0.7964 H         1 <0>         0.1396
     26 H10         2.1674   -4.3409    0.6895 H         1 <0>         0.1293
     27 H11         0.5344   -4.3483   -0.0197 H         1 <0>         0.0653
     28 H12         1.7656   -4.3235   -3.4760 H         1 <0>         0.1173
     29 H13         0.2982   -4.3381   -2.4678 H         1 <0>         0.0668
     30 H14         0.7234   -2.0698   -3.3630 H         1 <0>         0.1371
     31 H15         2.3404   -2.0741   -2.6191 H         1 <0>         0.1383
     32 H16         2.6733   -6.2829   -0.5114 H         1 <0>         0.1174
     33 H17         1.1763   -6.3505   -1.4719 H         1 <0>         0.0749
     34 H18        -0.2042   -2.3158   -1.1753 H         1 <0>         0.4204
@<TRIPOS>BOND
     1    1    2 1
     2    1   17 1
     3    1   18 1
     4    1   19 1
     5    2    3 1
     6    2   20 1
     7    2   21 1
     8    3    4 1
     9    3   22 1
    10    3   23 1
    11    4    9 1
    12    4    5 1
    13    4   34 1
    14    5    6 1
    15    5   24 1
    16    5   25 1
    17    6    7 1
    18    6   26 1
    19    6   27 1
    20    7    8 1
    21    7   10 1
    22    8    9 1
    23    8   28 1
    24    8   29 1
    25    9   30 1
    26    9   31 1
    27   10   11 1
    28   10   32 1
    29   10   33 1
    30   11   15 1
    31   11   12 2
    32   12   13 1
    33   12   16 1
    34   13   14 1
    35   14   15 2
