@<TRIPOS>MOLECULE
ZINC35877386
   54    57     0     0     0
SMALL
USER_CHARGES

@<TRIPOS>ATOM
      1 C1         -1.2126    0.7907   -0.4815 C.3       1 <0>        -0.1697
      2 C2          0.0021   -0.0041    0.0020 C.3       1 <0>         0.1634
      3 C3          0.8839    0.8922    0.8738 C.3       1 <0>        -0.1651
      4 C4         -0.4690   -1.2076    0.8208 C.3       1 <0>        -0.1287
      5 N1          0.7719   -0.4708   -1.1537 N.am      1 <0>        -0.5535
      6 C5          0.9297   -1.7885   -1.3403 C.2       1 <0>         0.5049
      7 O1          0.4287   -2.5585   -0.5492 O.2       1 <0>        -0.4277
      8 C6          1.7088   -2.3403   -2.5012 C.3       1 <0>        -0.1039
      9 C7          0.8038   -3.2454   -3.3393 C.3       1 <0>        -0.0519
     10 C8          0.4008   -4.4470   -2.5254 C.ar      1 <0>        -0.1334
     11 C9          1.1928   -4.8985   -1.4843 C.ar      1 <0>         0.2372
     12 C10         0.7983   -6.0075   -0.7424 C.ar      1 <0>        -0.1738
     13 C11        -0.3805   -6.6583   -1.0475 C.ar      1 <0>        -0.0561
     14 C12        -1.1694   -6.2077   -2.0896 C.ar      1 <0>        -0.1404
     15 C13        -0.7800   -5.1042   -2.8279 C.ar      1 <0>         0.0121
     16 Cl1        -1.7740   -4.5421   -4.1355 Cl        1 <0>        -0.0523
     17 N2          2.4017   -4.2641   -1.1560 N.pl3     1 <0>        -0.6266
     18 C14         2.8911   -3.1624   -1.9694 C.3       1 <0>         0.1775
     19 H1          3.4300   -3.5774   -2.8212 H         1 <0>         0.1190
     20 C15         3.8374   -2.2333   -1.2260 C.3       1 <0>        -0.0300
     21 N3          4.7255   -2.9645   -0.3236 N.4       1 <0>        -0.3782
     22 C16         3.9119   -3.6565    0.6874 C.3       1 <0>        -0.0213
     23 C17         3.1409   -4.7802   -0.0010 C.3       1 <0>         0.1004
     24 C18         5.6375   -2.0227    0.3391 C.3       1 <0>        -0.0486
     25 C19         2.2338   -1.2248   -3.3619 C.2       1 <0>         0.5178
     26 O2          2.8810   -1.4990   -4.3496 O.2       1 <0>        -0.4563
     27 N4          2.0073    0.0633   -3.0702 N.am      1 <0>        -0.6630
     28 C20         1.2930    0.4335   -1.9966 C.2       1 <0>         0.7016
     29 O3          1.1178    1.6160   -1.7801 O.2       1 <0>        -0.4862
     30 H2         -0.8773    1.7074   -0.9667 H         1 <0>         0.0825
     31 H3         -1.7802    0.1901   -1.1924 H         1 <0>         0.0607
     32 H4         -1.8456    1.0407    0.3699 H         1 <0>         0.0832
     33 H5          0.3111    1.2395    1.7337 H         1 <0>         0.0842
     34 H6          1.7492    0.3260    1.2183 H         1 <0>         0.0493
     35 H7          1.2194    1.7497    0.2905 H         1 <0>         0.0853
     36 H8         -1.1125   -1.8363    0.2054 H         1 <0>         0.0797
     37 H9          0.3956   -1.7844    1.1494 H         1 <0>         0.0678
     38 H10        -1.0257   -0.8597    1.6910 H         1 <0>         0.0595
     39 H11        -0.0873   -2.6928   -3.6368 H         1 <0>         0.1017
     40 H12         1.3416   -3.5732   -4.2289 H         1 <0>         0.1171
     41 H13         1.4140   -6.3591    0.0723 H         1 <0>         0.1330
     42 H14        -0.6867   -7.5193   -0.4718 H         1 <0>         0.1401
     43 H15        -2.0906   -6.7182   -2.3282 H         1 <0>         0.1394
     44 H16         4.4404   -1.6871   -1.9513 H         1 <0>         0.1503
     45 H17         3.2513   -1.5205   -0.6460 H         1 <0>         0.1241
     46 H18         4.5606   -4.0745    1.4573 H         1 <0>         0.1539
     47 H19         3.2115   -2.9538    1.1388 H         1 <0>         0.1353
     48 H20         2.4393   -5.2213    0.7071 H         1 <0>         0.1305
     49 H21         3.8420   -5.5450   -0.3353 H         1 <0>         0.0921
     50 H22         5.0584   -1.2969    0.9100 H         1 <0>         0.1231
     51 H23         6.2988   -2.5694    1.0114 H         1 <0>         0.1348
     52 H24         6.2321   -1.5030   -0.4122 H         1 <0>         0.1288
     53 H25         2.3678    0.7484   -3.6547 H         1 <0>         0.4439
     54 H26         5.2589   -3.6409   -0.8490 H         1 <0>         0.4324
@<TRIPOS>BOND
     1    1    2 1
     2    1   30 1
     3    1   31 1
     4    1   32 1
     5    2    3 1
     6    2    4 1
     7    2    5 1
     8    3   33 1
     9    3   34 1
    10    3   35 1
    11    4   36 1
    12    4   37 1
    13    4   38 1
    14    5   28 am
    15    5    6 am
    16    6    7 2
    17    6    8 1
    18    8   18 1
    19    8    9 1
    20    8   25 1
    21    9   10 1
    22    9   39 1
    23    9   40 1
    24   10   15 ar
    25   10   11 ar
    26   11   12 ar
    27   11   17 1
    28   12   13 ar
    29   12   41 1
    30   13   14 ar
    31   13   42 1
    32   14   15 ar
    33   14   43 1
    34   15   16 1
    35   17   23 1
    36   17   18 1
    37   18   19 1
    38   18   20 1
    39   20   21 1
    40   20   44 1
    41   20   45 1
    42   21   22 1
    43   21   24 1
    44   21   54 1
    45   22   23 1
    46   22   46 1
    47   22   47 1
    48   23   48 1
    49   23   49 1
    50   24   50 1
    51   24   51 1
    52   24   52 1
    53   25   26 2
    54   25   27 am
    55   27   28 am
    56   27   53 1
    57   28   29 2
