@<TRIPOS>MOLECULE
ZINC04548383
   54    57     0     0     0
SMALL
USER_CHARGES
tetrahydrofuran-2-ylmethyl 2-methyl-4-(3-nitrophenyl)-5-oxo-4,6,7,8-tetrahydro-1H-quinoline-3-carboxylate
@<TRIPOS>ATOM
      1 C1          2.3600   -0.2333    0.1974 C.3       1 <0>        -0.1183
      2 C2          2.3637    1.2702    0.0953 C.2       1 <0>         0.2693
      3 C3          1.2140    1.9262   -0.1387 C.3       1 <0>        -0.1940
      4 C4          1.1827    3.4226   -0.2620 C.3       1 <0>         0.0603
      5 H1          0.3062    3.8030    0.2626 H         1 <0>         0.1127
      6 C5          2.4234    4.0373    0.3392 C.2       1 <0>        -0.2853
      7 C6          3.5296    3.2922    0.5468 C.2       1 <0>         0.1931
      8 N1          3.5361    1.9576    0.2413 N.2       1 <0>        -0.5159
      9 C7          4.7833    3.9058    1.1197 C.3       1 <0>        -0.0811
     10 C8          4.4017    5.0458    2.0737 C.3       1 <0>        -0.1166
     11 C9          3.5899    6.0800    1.2868 C.3       1 <0>        -0.1564
     12 C10         2.3945    5.4022    0.6749 C.2       1 <0>         0.3974
     13 O1          1.3854    6.0463    0.4666 O.2       1 <0>        -0.4619
     14 C11         1.0914    3.8041   -1.7170 C.ar      1 <0>        -0.0890
     15 C12         2.0888    3.4231   -2.5955 C.ar      1 <0>        -0.0469
     16 C13         2.0030    3.7697   -3.9307 C.ar      1 <0>        -0.1128
     17 C14         0.9241    4.5043   -4.3863 C.ar      1 <0>        -0.0505
     18 C15        -0.0702    4.8898   -3.5071 C.ar      1 <0>        -0.0419
     19 C16         0.0135    4.5398   -2.1723 C.ar      1 <0>        -0.0354
     20 N2         -1.2252    5.6768   -3.9948 N.pl3     1 <0>         0.0276
     21 O2         -2.1016    6.0161   -3.2202 O.2       1 <0>        -0.1566
     22 O3         -1.2989    5.9851   -5.1708 O.3       1 <0>        -0.1566
     23 C17         0.0130    1.1925   -0.2806 C.2       1 <0>         0.5093
     24 O4         -0.8093    1.1920    0.6164 O.2       1 <0>        -0.4920
     25 O5         -0.2184    0.4886   -1.4084 O.3       1 <0>        -0.3241
     26 C18        -1.4492   -0.2340   -1.4813 C.3       1 <0>         0.0483
     27 C19        -1.5330   -0.9648   -2.8228 C.3       1 <0>         0.0833
     28 H2         -1.3906   -0.2565   -3.6390 H         1 <0>         0.0931
     29 C20        -2.9077   -1.6540   -2.9587 C.3       1 <0>        -0.1497
     30 C21        -2.5359   -2.9994   -3.6396 C.3       1 <0>        -0.1555
     31 C22        -1.1483   -3.2752   -3.0077 C.3       1 <0>         0.0455
     32 O6         -0.5293   -1.9849   -2.8840 O.3       1 <0>        -0.3684
     33 H3          2.4749   -0.6295   -0.7135 H         1 <0>         0.0982
     34 H4          3.1793   -0.5558    0.8399 H         1 <0>         0.1010
     35 H5          1.4128   -0.5664    0.6216 H         1 <0>         0.0825
     36 H6          0.7801    2.1591    0.7316 H         1 <0>         0.1723
     37 H7          5.3378    3.1483    1.6736 H         1 <0>         0.0994
     38 H8          5.4031    4.2881    0.3087 H         1 <0>         0.1015
     39 H9          3.8007    4.6567    2.8955 H         1 <0>         0.0748
     40 H10         5.3059    5.5115    2.4658 H         1 <0>         0.0906
     41 H11         3.2875    6.8062    1.9042 H         1 <0>         0.0895
     42 H12         4.2098    6.5074    0.4988 H         1 <0>         0.1034
     43 H13         2.9331    2.8520   -2.2389 H         1 <0>         0.1362
     44 H14         2.7802    3.4688   -4.6176 H         1 <0>         0.1510
     45 H15         0.8585    4.7774   -5.4292 H         1 <0>         0.1560
     46 H16        -0.7635    4.8409   -1.4852 H         1 <0>         0.1530
     47 H17        -1.4932   -0.9594   -0.6689 H         1 <0>         0.0790
     48 H18        -2.2842    0.4611   -1.3934 H         1 <0>         0.0833
     49 H19        -3.3543   -1.8253   -1.9794 H         1 <0>         0.0831
     50 H20        -3.5737   -1.0693   -3.5932 H         1 <0>         0.0908
     51 H21        -2.4594   -2.8846   -4.7209 H         1 <0>         0.0826
     52 H22        -3.2487   -3.7817   -3.3790 H         1 <0>         0.0883
     53 H23        -0.5566   -3.9176   -3.6599 H         1 <0>         0.0901
     54 H24        -1.2641   -3.7351   -2.0263 H         1 <0>         0.0624
@<TRIPOS>BOND
     1    1    2 1
     2    1   33 1
     3    1   34 1
     4    1   35 1
     5    2    8 2
     6    2    3 1
     7    3    4 1
     8    3   23 1
     9    3   36 1
    10    4    5 1
    11    4    6 1
    12    4   14 1
    13    6   12 1
    14    6    7 2
    15    7    9 1
    16    7    8 1
    17    9   10 1
    18    9   37 1
    19    9   38 1
    20   10   11 1
    21   10   39 1
    22   10   40 1
    23   11   12 1
    24   11   41 1
    25   11   42 1
    26   12   13 2
    27   14   19 ar
    28   14   15 ar
    29   15   16 ar
    30   15   43 1
    31   16   17 ar
    32   16   44 1
    33   17   18 ar
    34   17   45 1
    35   18   19 ar
    36   18   20 1
    37   19   46 1
    38   20   21 2
    39   20   22 1
    40   23   24 2
    41   23   25 1
    42   25   26 1
    43   26   27 1
    44   26   47 1
    45   26   48 1
    46   27   28 1
    47   27   32 1
    48   27   29 1
    49   29   30 1
    50   29   49 1
    51   29   50 1
    52   30   31 1
    53   30   51 1
    54   30   52 1
    55   31   32 1
    56   31   53 1
    57   31   54 1
