@<TRIPOS>MOLECULE
ZINC20800125
   54    56     0     0     0
SMALL
USER_CHARGES
N'-(3,5-dimethoxyphenyl)-N-[5-(1,1-dioxo-1,2-thiazolidin-2-yl)-2-methoxy-phenyl]oxamide
@<TRIPOS>ATOM
      1 C1          6.9654    4.0179   -0.0912 C.3       1 <0>         0.0236
      2 O1          5.7489    3.2721   -0.0136 O.3       1 <0>        -0.3156
      3 C2          5.8590    1.9214    0.1065 C.ar      1 <0>         0.0874
      4 C3          7.1106    1.3297    0.1534 C.ar      1 <0>        -0.1485
      5 C4          7.2244   -0.0427    0.2701 C.ar      1 <0>        -0.1388
      6 C5          6.0843   -0.8327    0.3461 C.ar      1 <0>         0.1982
      7 C6          4.8282   -0.2447    0.3044 C.ar      1 <0>        -0.1192
      8 C7          4.7127    1.1330    0.1872 C.ar      1 <0>         0.1469
      9 N1          3.4481    1.7290    0.1444 N.am      1 <0>        -0.6431
     10 C8          2.4248    1.0954   -0.4621 C.2       1 <0>         0.5148
     11 O2          2.5788   -0.0270   -0.8983 O.2       1 <0>        -0.5052
     12 C9          1.1023    1.7736   -0.5973 C.2       1 <0>         0.5153
     13 O3          0.9483    2.8959   -0.1611 O.2       1 <0>        -0.4919
     14 N2          0.0789    1.1400   -1.2038 N.am      1 <0>        -0.6547
     15 C10        -1.1829    1.7380   -1.2517 C.ar      1 <0>         0.2210
     16 C11        -2.3266    0.9542   -1.1741 C.ar      1 <0>        -0.2098
     17 C12        -3.5782    1.5489   -1.2170 C.ar      1 <0>         0.1850
     18 C13        -3.6883    2.9253   -1.3479 C.ar      1 <0>        -0.3084
     19 C14        -2.5466    3.7085   -1.4307 C.ar      1 <0>         0.1853
     20 C15        -1.2942    3.1161   -1.3827 C.ar      1 <0>        -0.1907
     21 O4         -2.6558    5.0570   -1.5585 O.3       1 <0>        -0.3088
     22 C16        -3.9770    5.5998   -1.6013 C.3       1 <0>         0.0225
     23 O5         -4.6975    0.7825   -1.1364 O.3       1 <0>        -0.3111
     24 C17        -5.9539    1.4610   -1.1930 C.3       1 <0>         0.0228
     25 N3          6.2026   -2.2219    0.4642 N.pl3     1 <0>        -0.9275
     26 C18         5.2216   -3.1499    1.0553 C.3       1 <0>         0.0585
     27 C19         5.3198   -4.5404    0.3944 C.3       1 <0>        -0.1367
     28 C20         6.8457   -4.8529    0.3419 C.3       1 <0>        -0.5945
     29 S1          7.4922   -3.1715   -0.0308 S.o2      1 <0>         2.5640
     30 O6          7.5945   -2.9711   -1.4339 O.2       1 <0>        -0.9406
     31 O7          8.5643   -2.8398    0.8408 O.2       1 <0>        -0.9447
     32 H1          6.7334    5.0890   -0.1852 H         1 <0>         0.1045
     33 H2          7.5417    3.6892   -0.9686 H         1 <0>         0.0586
     34 H3          7.5575    3.8495    0.8204 H         1 <0>         0.0589
     35 H4          7.9988    1.9413    0.0946 H         1 <0>         0.1434
     36 H5          8.2014   -0.5018    0.3027 H         1 <0>         0.1330
     37 H6          3.9415   -0.8586    0.3627 H         1 <0>         0.1532
     38 H7          3.2888    2.7148    0.6057 H         1 <0>         0.4574
     39 H8          0.2371    0.1521   -1.6610 H         1 <0>         0.4551
     40 H9         -2.2411   -0.1180   -1.0764 H         1 <0>         0.1389
     41 H10        -4.6637    3.3875   -1.3850 H         1 <0>         0.1369
     42 H11        -0.4053    3.7261   -1.4469 H         1 <0>         0.1494
     43 H12        -3.9209    6.6934   -1.7059 H         1 <0>         0.1053
     44 H13        -4.5075    5.3471   -0.6714 H         1 <0>         0.0573
     45 H14        -4.5196    5.1767   -2.4595 H         1 <0>         0.0573
     46 H15        -6.7703    0.7277   -1.1176 H         1 <0>         0.1053
     47 H16        -6.0351    2.0033   -2.1466 H         1 <0>         0.0578
     48 H17        -6.0233    2.1742   -0.3584 H         1 <0>         0.0576
     49 H18         5.4179   -3.2536    2.1327 H         1 <0>         0.0893
     50 H19         4.2061   -2.7552    0.9040 H         1 <0>         0.1045
     51 H20         4.7749   -5.2757    1.0046 H         1 <0>         0.1193
     52 H21         4.8781   -4.5000   -0.6122 H         1 <0>         0.1000
     53 H22         7.1712   -5.2549    1.3127 H         1 <0>         0.1501
     54 H23         7.0411   -5.5948   -0.4464 H         1 <0>         0.1513
@<TRIPOS>BOND
     1    1    2 1
     2    1   32 1
     3    1   33 1
     4    1   34 1
     5    2    3 1
     6    3    8 ar
     7    3    4 ar
     8    4    5 ar
     9    4   35 1
    10    5    6 ar
    11    5   36 1
    12    6    7 ar
    13    6   25 1
    14    7    8 ar
    15    7   37 1
    16    8    9 1
    17    9   10 am
    18    9   38 1
    19   10   11 2
    20   10   12 1
    21   12   13 2
    22   12   14 am
    23   14   15 1
    24   14   39 1
    25   15   20 ar
    26   15   16 ar
    27   16   17 ar
    28   16   40 1
    29   17   18 ar
    30   17   23 1
    31   18   19 ar
    32   18   41 1
    33   19   20 ar
    34   19   21 1
    35   20   42 1
    36   21   22 1
    37   22   43 1
    38   22   44 1
    39   22   45 1
    40   23   24 1
    41   24   46 1
    42   24   47 1
    43   24   48 1
    44   25   29 1
    45   25   26 1
    46   26   27 1
    47   26   49 1
    48   26   50 1
    49   27   28 1
    50   27   51 1
    51   27   52 1
    52   28   29 1
    53   28   53 1
    54   28   54 1
    55   29   30 2
    56   29   31 2
