@<TRIPOS>MOLECULE
ZINC25074956
   48    51     0     0     0
SMALL
USER_CHARGES
(5R)-5-(4-chlorophenyl)-5-ethyl-3-[(7-methyl-4-oxo-pyrido[1,2-a]pyrimidin-2-yl)methyl]imidazolidine-2,4-dione
@<TRIPOS>ATOM
      1 C1          2.5070    5.0920    0.6727 C.3       1 <0>        -0.1613
      2 C2          3.6714    4.1970    1.1017 C.3       1 <0>        -0.1182
      3 C3          3.4206    2.7671    0.6184 C.3       1 <0>         0.1587
      4 C4          2.0751    2.2709    1.1094 C.2       1 <0>         0.5341
      5 O1          1.7202    2.1356    2.2607 O.2       1 <0>        -0.4525
      6 N1          1.3560    2.0099   -0.0001 N.am      1 <0>        -0.5694
      7 C5          2.0504    2.2764   -1.1122 C.2       1 <0>         0.7167
      8 O2          1.6116    2.1243   -2.2354 O.2       1 <0>        -0.5203
      9 N2          3.2886    2.7315   -0.8483 N.am      1 <0>        -0.7290
     10 C6         -0.0184    1.5028    0.0103 C.3       1 <0>         0.1682
     11 C7          0.0021   -0.0041    0.0020 C.2       1 <0>         0.1832
     12 C8         -0.4838   -0.7067    1.0874 C.2       1 <0>        -0.3091
     13 C9         -0.4547   -2.1057    1.0562 C.2       1 <0>         0.5089
     14 O3         -0.8769   -2.7559    1.9994 O.2       1 <0>        -0.5273
     15 N3          0.0473   -2.7250   -0.0336 N.am      1 <0>        -0.4239
     16 C10         0.0825   -4.0856   -0.0790 C.2       1 <0>         0.0902
     17 C11         0.5815   -4.7284   -1.1586 C.2       1 <0>        -0.1285
     18 C12         1.0692   -3.9968   -2.2506 C.2       1 <0>        -0.0295
     19 C13         1.0378   -2.6349   -2.2155 C.2       1 <0>        -0.1300
     20 C14         0.5158   -1.9841   -1.0826 C.2       1 <0>         0.3888
     21 N4          0.4807   -0.6532   -1.0478 N.2       1 <0>        -0.5213
     22 C15         0.6123   -6.2348   -1.1889 C.3       1 <0>        -0.1111
     23 C16         4.5292    1.8533    1.0733 C.ar      1 <0>        -0.0939
     24 C17         5.2350    2.1439    2.2259 C.ar      1 <0>        -0.0803
     25 C18         6.2481    1.3030    2.6467 C.ar      1 <0>        -0.1079
     26 C19         6.5633    0.1765    1.9080 C.ar      1 <0>        -0.0238
     27 C20         5.8603   -0.1108    0.7515 C.ar      1 <0>        -0.1093
     28 C21         4.8436    0.7277    0.3348 C.ar      1 <0>        -0.0853
     29 Cl1         7.8407   -0.8760    2.4317 Cl        1 <0>        -0.0622
     30 H1          2.6874    6.1200    1.0202 H         1 <0>         0.0718
     31 H2          1.5726    4.7145    1.1136 H         1 <0>         0.0530
     32 H3          2.4239    5.0849   -0.4241 H         1 <0>         0.0634
     33 H4          4.6058    4.5745    0.6608 H         1 <0>         0.0922
     34 H5          3.7545    4.2040    2.1985 H         1 <0>         0.0922
     35 H6          4.1288    3.0476   -1.4840 H         1 <0>         0.4705
     36 H7         -0.5333    1.8575    0.9153 H         1 <0>         0.1210
     37 H8         -0.5505    1.8672   -0.8808 H         1 <0>         0.1255
     38 H9         -0.8801   -0.1851    1.9460 H         1 <0>         0.1613
     39 H10        -0.2916   -4.6576    0.7573 H         1 <0>         0.1816
     40 H11         1.4674   -4.5092   -3.1139 H         1 <0>         0.1552
     41 H12         1.4108   -2.0599   -3.0501 H         1 <0>         0.1692
     42 H13         1.0493   -6.5735   -2.1399 H         1 <0>         0.0791
     43 H14        -0.4123   -6.6244   -1.0968 H         1 <0>         0.0795
     44 H15         1.2224   -6.6060   -0.3522 H         1 <0>         0.0791
     45 H16         4.9919    3.0257    2.8000 H         1 <0>         0.1417
     46 H17         6.7966    1.5278    3.5495 H         1 <0>         0.1405
     47 H18         6.1061   -0.9899    0.1743 H         1 <0>         0.1366
     48 H19         4.2945    0.5034   -0.5677 H         1 <0>         0.1322
@<TRIPOS>BOND
     1    1    2 1
     2    1   30 1
     3    1   31 1
     4    1   32 1
     5    2    3 1
     6    2   33 1
     7    2   34 1
     8    3    9 1
     9    3    4 1
    10    3   23 1
    11    4    5 2
    12    4    6 am
    13    6    7 am
    14    6   10 1
    15    7    8 2
    16    7    9 am
    17    9   35 1
    18   10   11 1
    19   10   36 1
    20   10   37 1
    21   11   21 1
    22   11   12 2
    23   12   13 1
    24   12   38 1
    25   13   14 2
    26   13   15 am
    27   15   20 1
    28   15   16 1
    29   16   17 2
    30   16   39 1
    31   17   18 1
    32   17   22 1
    33   18   19 2
    34   18   40 1
    35   19   20 1
    36   19   41 1
    37   20   21 2
    38   22   42 1
    39   22   43 1
    40   22   44 1
    41   23   28 ar
    42   23   24 ar
    43   24   25 ar
    44   24   45 1
    45   25   26 ar
    46   25   46 1
    47   26   27 ar
    48   26   29 1
    49   27   28 ar
    50   27   47 1
    51   28   48 1
