@<TRIPOS>MOLECULE
ZINC39628661
   71    74     0     0     0
SMALL
USER_CHARGES

@<TRIPOS>ATOM
      1 C1         -4.0475    3.2712    1.9869 C.3       1 <0>        -0.1853
      2 C2         -2.7125    3.0808    1.2641 C.3       1 <0>         0.0265
      3 H1         -2.7706    2.2036    0.6196 H         1 <0>         0.1379
      4 C3         -2.4121    4.3178    0.4149 C.3       1 <0>        -0.1409
      5 C4         -1.0756    4.1226   -0.3067 C.3       1 <0>        -0.1412
      6 C5          0.0182    3.8508    0.7301 C.3       1 <0>        -0.1454
      7 C6         -0.3723    2.6311    1.5676 C.3       1 <0>        -0.0116
      8 N1         -1.6442    2.8910    2.2526 N.4       1 <0>        -0.3790
      9 C7         -1.9752    1.7496    3.1160 C.3       1 <0>        -0.0149
     10 C8         -0.9268    1.6270    4.2236 C.3       1 <0>        -0.1612
     11 C9         -1.2715    0.4382    5.1229 C.3       1 <0>         0.1199
     12 N2         -0.2676    0.3208    6.1834 N.am      1 <0>        -0.7350
     13 C10        -0.3675   -0.6621    7.1001 C.2       1 <0>         0.5245
     14 O1         -1.2886   -1.4494    7.0471 O.2       1 <0>        -0.5070
     15 C11         0.6652   -0.7828    8.1910 C.3       1 <0>        -0.1141
     16 H2          1.6401   -0.4584    7.8272 H         1 <0>         0.1163
     17 C12         0.7392   -2.2388    8.7029 C.3       1 <0>         0.0893
     18 N3          0.9610   -2.1116   10.1626 N.am      1 <0>        -0.6166
     19 C13         0.1055   -0.9704   10.5674 C.3       1 <0>         0.1138
     20 C14         0.2481    0.0463    9.4173 C.3       1 <0>        -0.0741
     21 C15        -1.0862    0.7391    9.1579 C.3       1 <0>        -0.1442
     22 C16        -1.4512    1.6036   10.3679 C.3       1 <0>        -0.0093
     23 N4         -0.3966    2.5986   10.5968 N.4       1 <0>        -0.5040
     24 C17         0.8622    1.9247   10.9374 C.3       1 <0>        -0.0132
     25 C18         1.3251    1.0739    9.7513 C.3       1 <0>        -0.1331
     26 C19         1.7602   -2.8633   10.9453 C.2       1 <0>         0.6270
     27 O2          1.6909   -2.7667   12.1563 O.2       1 <0>        -0.5268
     28 C20         2.7140   -3.7983   10.3371 C.2       1 <0>        -0.1002
     29 C21         3.1430   -3.8029    9.0395 C.2       1 <0>         0.0318
     30 N5          4.0037   -4.8112    8.8988 N.2       1 <0>        -0.4932
     31 C22         4.1373   -5.4392   10.0390 C.2       1 <0>         0.2261
     32 N6          3.3616   -4.8455   10.9635 N.pl3     1 <0>        -0.4232
     33 C23         3.2267   -5.2371   12.3688 C.3       1 <0>         0.0612
     34 H3         -3.9898    4.1483    2.6315 H         1 <0>         0.0802
     35 H4         -4.8413    3.4110    1.2532 H         1 <0>         0.1090
     36 H5         -4.2624    2.3898    2.5911 H         1 <0>         0.0818
     37 H6         -3.2055    4.4565   -0.3196 H         1 <0>         0.1143
     38 H7         -2.3535    5.1956    1.0584 H         1 <0>         0.0876
     39 H8         -1.1499    3.2755   -0.9887 H         1 <0>         0.0837
     40 H9         -0.8295    5.0237   -0.8684 H         1 <0>         0.0973
     41 H10         0.9620    3.6557    0.2210 H         1 <0>         0.1140
     42 H11         0.1272    4.7189    1.3802 H         1 <0>         0.0865
     43 H12        -0.4808    1.7636    0.9167 H         1 <0>         0.1307
     44 H13         0.4044    2.4347    2.3068 H         1 <0>         0.1289
     45 H14        -2.9580    1.9039    3.5615 H         1 <0>         0.1387
     46 H15        -1.9850    0.8356    2.5222 H         1 <0>         0.1358
     47 H16         0.0560    1.4726    3.7781 H         1 <0>         0.0968
     48 H17        -0.9170    2.5410    4.8174 H         1 <0>         0.0914
     49 H18        -2.2543    0.5925    5.5684 H         1 <0>         0.0815
     50 H19        -1.2813   -0.4758    4.5290 H         1 <0>         0.0847
     51 H20         0.4690    0.9505    6.2257 H         1 <0>         0.4027
     52 H21        -0.1977   -2.7594    8.5048 H         1 <0>         0.1038
     53 H22         1.5727   -2.7638    8.2362 H         1 <0>         0.1130
     54 H23        -0.9319   -1.2894   10.6678 H         1 <0>         0.0878
     55 H24         0.4640   -0.5389   11.5019 H         1 <0>         0.0915
     56 H25        -1.0028    1.3693    8.2724 H         1 <0>         0.0935
     57 H26        -1.8610   -0.0110    8.9996 H         1 <0>         0.1246
     58 H27        -2.3961    2.1129   10.1785 H         1 <0>         0.1397
     59 H28        -1.5506    0.9705   11.2497 H         1 <0>         0.1361
     60 H29        -0.2670    3.1479    9.7604 H         1 <0>         0.4248
     61 H30         1.6227    2.6708   11.1678 H         1 <0>         0.1423
     62 H31         0.7077    1.2840   11.8055 H         1 <0>         0.1360
     63 H32         2.2504    0.5599   10.0115 H         1 <0>         0.1206
     64 H33         1.4956    1.7163    8.8874 H         1 <0>         0.0951
     65 H34         2.8390   -3.1130    8.2663 H         1 <0>         0.1827
     66 H35         4.7722   -6.2958   10.2112 H         1 <0>         0.2204
     67 H36         2.3426   -5.8634   12.4881 H         1 <0>         0.0851
     68 H37         4.1111   -5.7946   12.6771 H         1 <0>         0.0991
     69 H38         3.1259   -4.3448   12.9866 H         1 <0>         0.1023
     70 H39        -1.5578    3.7230    2.8169 H         1 <0>         0.4184
     71 H40        -0.6677    3.2056   11.3559 H         1 <0>         0.4371
@<TRIPOS>BOND
     1    1    2 1
     2    1   34 1
     3    1   35 1
     4    1   36 1
     5    2    3 1
     6    2    8 1
     7    2    4 1
     8    4    5 1
     9    4   37 1
    10    4   38 1
    11    5    6 1
    12    5   39 1
    13    5   40 1
    14    6    7 1
    15    6   41 1
    16    6   42 1
    17    7    8 1
    18    7   43 1
    19    7   44 1
    20    8    9 1
    21    8   70 1
    22    9   10 1
    23    9   45 1
    24    9   46 1
    25   10   11 1
    26   10   47 1
    27   10   48 1
    28   11   12 1
    29   11   49 1
    30   11   50 1
    31   12   13 am
    32   12   51 1
    33   13   14 2
    34   13   15 1
    35   15   16 1
    36   15   20 1
    37   15   17 1
    38   17   18 1
    39   17   52 1
    40   17   53 1
    41   18   19 1
    42   18   26 am
    43   19   20 1
    44   19   54 1
    45   19   55 1
    46   20   25 1
    47   20   21 1
    48   21   22 1
    49   21   56 1
    50   21   57 1
    51   22   23 1
    52   22   58 1
    53   22   59 1
    54   23   24 1
    55   23   60 1
    56   23   71 1
    57   24   25 1
    58   24   61 1
    59   24   62 1
    60   25   63 1
    61   25   64 1
    62   26   27 2
    63   26   28 1
    64   28   32 1
    65   28   29 2
    66   29   30 1
    67   29   65 1
    68   30   31 2
    69   31   32 1
    70   31   66 1
    71   32   33 1
    72   33   67 1
    73   33   68 1
    74   33   69 1
