@<TRIPOS>MOLECULE
ZINC38871337
   43    46     0     0     0
SMALL
USER_CHARGES

@<TRIPOS>ATOM
      1 C1         -0.0178    1.4608    0.0101 C.3       1 <0>         0.0909
      2 N1          0.0021   -0.0041    0.0020 N.pl3     1 <0>        -0.3378
      3 C2          0.0079   -0.8030   -1.1053 C.2       1 <0>         0.1416
      4 C3          0.0277   -2.1093   -0.6620 C.2       1 <0>        -0.2165
      5 C4          0.0336   -2.0830    0.7317 C.2       1 <0>         0.0464
      6 N2          0.0246   -0.8357    1.1285 N.2       1 <0>        -0.2617
      7 C5         -0.0052   -0.3548   -2.5078 C.2       1 <0>         0.2202
      8 N3         -0.0190    0.8894   -2.9267 N.2       1 <0>        -0.2478
      9 N4         -0.0271    0.9062   -4.2131 N.2       1 <0>        -0.2540
     10 C6         -0.0188   -0.3243   -4.6664 C.2       1 <0>         0.3985
     11 O1          0.0006   -1.1480   -3.6017 O.3       1 <0>        -0.2201
     12 N5         -0.0235   -0.7069   -5.9984 N.am      1 <0>        -0.6120
     13 C7         -0.0375    0.2289   -6.9683 C.2       1 <0>         0.4931
     14 O2         -0.0458    1.4057   -6.6754 O.2       1 <0>        -0.4217
     15 C8         -0.0426   -0.1872   -8.4167 C.3       1 <0>         0.1460
     16 H1          0.8427   -0.7849   -8.6337 H         1 <0>         0.1171
     17 C9         -1.3155   -1.0040   -8.7236 C.3       1 <0>        -0.1231
     18 C10        -2.2700    0.0562   -9.3337 C.3       1 <0>        -0.1301
     19 C11        -1.2794    0.9510  -10.1197 C.3       1 <0>         0.1113
     20 N6         -0.0657    1.0035   -9.2788 N.pl3     1 <0>        -0.9905
     21 S1          1.0769    2.2019   -9.3002 S.o2      1 <0>         2.7363
     22 O3          0.4362    3.3650   -9.8061 O.2       1 <0>        -0.9310
     23 O4          1.7169    2.1755   -8.0317 O.2       1 <0>        -0.9133
     24 C12         2.2939    1.7404  -10.4879 C.2       1 <0>        -0.7672
     25 C13         2.3446    2.0244  -11.8119 C.2       1 <0>         0.0032
     26 C14         3.4079    1.5520  -12.5590 C.2       1 <0>        -0.1742
     27 C15         4.3686    0.8181  -11.9436 C.2       1 <0>        -0.0850
     28 S2          3.7836    0.7841  -10.2573 S.3       1 <0>         0.2170
     29 Cl1         5.7992    0.1035  -12.6192 Cl        1 <0>         0.0379
     30 H2          1.0048    1.8381    0.0023 H         1 <0>         0.0836
     31 H3         -0.5450    1.8219   -0.8730 H         1 <0>         0.1045
     32 H4         -0.5280    1.8123    0.9069 H         1 <0>         0.0960
     33 H5          0.0366   -2.9930   -1.2829 H         1 <0>         0.1602
     34 H6          0.0483   -2.9486    1.3773 H         1 <0>         0.1961
     35 H7         -0.0169   -1.6481   -6.2327 H         1 <0>         0.4289
     36 H8         -1.1030   -1.7925   -9.4455 H         1 <0>         0.1015
     37 H9         -1.7364   -1.4206   -7.8085 H         1 <0>         0.0894
     38 H10        -2.9929   -0.4086  -10.0041 H         1 <0>         0.0966
     39 H11        -2.7738    0.6245   -8.5518 H         1 <0>         0.0827
     40 H12        -1.0499    0.5041  -11.0870 H         1 <0>         0.0794
     41 H13        -1.6935    1.9506  -10.2513 H         1 <0>         0.0941
     42 H14         1.5658    2.6107  -12.2768 H         1 <0>         0.1579
     43 H15         3.4723    1.7636  -13.6161 H         1 <0>         0.1560
@<TRIPOS>BOND
     1    1    2 1
     2    1   30 1
     3    1   31 1
     4    1   32 1
     5    2    6 1
     6    2    3 1
     7    3    4 2
     8    3    7 1
     9    4    5 1
    10    4   33 1
    11    5    6 2
    12    5   34 1
    13    7   11 1
    14    7    8 2
    15    8    9 1
    16    9   10 2
    17   10   11 1
    18   10   12 1
    19   12   13 am
    20   12   35 1
    21   13   14 2
    22   13   15 1
    23   15   16 1
    24   15   20 1
    25   15   17 1
    26   17   18 1
    27   17   36 1
    28   17   37 1
    29   18   19 1
    30   18   38 1
    31   18   39 1
    32   19   20 1
    33   19   40 1
    34   19   41 1
    35   20   21 1
    36   21   22 2
    37   21   23 2
    38   21   24 1
    39   24   28 1
    40   24   25 2
    41   25   26 1
    42   25   42 1
    43   26   27 2
    44   26   43 1
    45   27   28 1
    46   27   29 1
