@<TRIPOS>MOLECULE
ZINC36207326
   69    72     0     0     0
SMALL
USER_CHARGES

@<TRIPOS>ATOM
      1 C1          0.8029    2.2473   -0.4976 C.3       1 <0>        -0.1320
      2 C2          1.0267    0.7350   -0.4350 C.3       1 <0>        -0.0994
      3 C3          1.5482    0.2490   -1.7627 C.2       1 <0>         0.0319
      4 C4          0.6575   -0.1550   -2.7590 C.2       1 <0>        -0.2214
      5 C5         -0.8227   -0.1900   -2.7328 C.2       1 <0>         0.5636
      6 O1         -1.4388    0.1657   -1.7439 O.2       1 <0>        -0.4695
      7 N1         -1.4704   -0.6249   -3.8313 N.am      1 <0>        -0.6242
      8 H1         -2.4400   -0.6537   -3.8308 H         1 <0>         0.4292
      9 C6         -0.7951   -1.0226   -4.9375 C.2       1 <0>         0.3769
     10 N2          0.5089   -1.0044   -4.9939 N.2       1 <0>        -0.4906
     11 C7          1.2439   -0.5944   -3.9682 C.2       1 <0>         0.0777
     12 S1          2.9842   -0.4260   -3.6622 S.3       1 <0>         0.2786
     13 C8          2.8926    0.2080   -1.9962 C.2       1 <0>        -0.2157
     14 C9          3.9877    0.5871   -1.1010 C.2       1 <0>         0.5488
     15 O2          3.7441    1.0029    0.0158 O.2       1 <0>        -0.4691
     16 O3          5.2668    0.4751   -1.5149 O.3       1 <0>        -0.3475
     17 C10         6.2844    0.8629   -0.5896 C.3       1 <0>         0.0343
     18 C11        -1.5725   -1.5001   -6.1369 C.3       1 <0>         0.0398
     19 N3         -0.6440   -2.0399   -7.1392 N.4       1 <0>        -0.3692
     20 C12        -1.2688   -1.9812   -8.4674 C.3       1 <0>        -0.0539
     21 C13        -0.2509   -2.4027   -9.5289 C.3       1 <0>         0.0885
     22 H2          0.0857   -3.4194   -9.3261 H         1 <0>         0.1330
     23 C14        -0.9035   -2.3479  -10.9116 C.3       1 <0>         0.0323
     24 O4          0.0087   -2.8517  -11.8893 O.3       1 <0>        -0.3682
     25 C15        -0.5055   -2.8443  -13.2226 C.3       1 <0>         0.1488
     26 C16         0.5342   -3.3934  -14.1651 C.2       1 <0>        -0.0366
     27 C17         0.6764   -4.6848  -14.5137 C.2       1 <0>        -0.1739
     28 C18         1.7676   -4.7492  -15.4104 C.2       1 <0>        -0.2195
     29 C19         2.2269   -3.4934  -15.5562 C.2       1 <0>        -0.0186
     30 O5          1.4724   -2.6756  -14.8041 O.3       1 <0>        -0.1715
     31 O6          0.8682   -1.5147   -9.4949 O.3       1 <0>        -0.5397
     32 C20        -0.3246   -3.4353   -6.8095 C.3       1 <0>         0.0202
     33 C21        -1.6066   -4.2701   -6.8286 C.3       1 <0>        -0.1443
     34 C22        -1.2740   -5.7235   -6.4852 C.3       1 <0>        -0.1163
     35 C23        -0.6446   -5.7872   -5.0921 C.3       1 <0>        -0.1308
     36 C24         0.6374   -4.9524   -5.0730 C.3       1 <0>        -0.1198
     37 C25         0.3048   -3.4990   -5.4164 C.3       1 <0>        -0.1367
     38 H3          1.7463    2.7452   -0.7217 H         1 <0>         0.0549
     39 H4          0.0774    2.4752   -1.2785 H         1 <0>         0.0495
     40 H5          0.4257    2.5989    0.4627 H         1 <0>         0.0693
     41 H6          1.7522    0.5071    0.3459 H         1 <0>         0.1013
     42 H7          0.0833    0.2372   -0.2109 H         1 <0>         0.0922
     43 H8          7.2638    0.7237   -1.0473 H         1 <0>         0.1114
     44 H9          6.1533    1.9119   -0.3239 H         1 <0>         0.0682
     45 H10         6.2123    0.2490    0.3081 H         1 <0>         0.0681
     46 H11        -2.2702   -2.2797   -5.8309 H         1 <0>         0.1688
     47 H12        -2.1262   -0.6655   -6.5669 H         1 <0>         0.1701
     48 H13        -2.1246   -2.6557   -8.4965 H         1 <0>         0.1506
     49 H14        -1.6020   -0.9628   -8.6675 H         1 <0>         0.1426
     50 H15        -1.8079   -2.9563  -10.9109 H         1 <0>         0.0726
     51 H16        -1.1600   -1.3160  -11.1517 H         1 <0>         0.0682
     52 H17        -1.4017   -3.4630  -13.2698 H         1 <0>         0.0869
     53 H18        -0.7538   -1.8228  -13.5106 H         1 <0>         0.0728
     54 H19         0.0732   -5.5134  -14.1734 H         1 <0>         0.1503
     55 H20         2.1577   -5.6366  -15.8867 H         1 <0>         0.1541
     56 H21         3.0588   -3.1931  -16.1761 H         1 <0>         0.2088
     57 H22         0.6423   -0.5904   -9.6673 H         1 <0>         0.3887
     58 H23         0.3773   -3.8306   -7.5437 H         1 <0>         0.1482
     59 H24        -2.3086   -3.8749   -6.0944 H         1 <0>         0.0846
     60 H25        -2.0550   -4.2248   -7.8211 H         1 <0>         0.0906
     61 H26        -2.1873   -6.3183   -6.4988 H         1 <0>         0.0862
     62 H27        -0.5720   -6.1188   -7.2195 H         1 <0>         0.0780
     63 H28        -1.3466   -5.3919   -4.3579 H         1 <0>         0.0666
     64 H29        -0.4076   -6.8227   -4.8475 H         1 <0>         0.0805
     65 H30         1.0858   -4.9978   -4.0805 H         1 <0>         0.0821
     66 H31         1.3394   -5.3477   -5.8072 H         1 <0>         0.0777
     67 H32         1.2181   -2.9043   -5.4028 H         1 <0>         0.1062
     68 H33        -0.3972   -3.1037   -4.6821 H         1 <0>         0.0703
     69 H34         0.2036   -1.4924   -7.1417 H         1 <0>         0.4442
@<TRIPOS>BOND
     1    1    2 1
     2    1   38 1
     3    1   39 1
     4    1   40 1
     5    2    3 1
     6    2   41 1
     7    2   42 1
     8    3   13 2
     9    3    4 1
    10    4   11 2
    11    4    5 1
    12    5    6 2
    13    5    7 am
    14    7    8 1
    15    7    9 1
    16    9   10 2
    17    9   18 1
    18   10   11 1
    19   11   12 1
    20   12   13 1
    21   13   14 1
    22   14   15 2
    23   14   16 1
    24   16   17 1
    25   17   43 1
    26   17   44 1
    27   17   45 1
    28   18   19 1
    29   18   46 1
    30   18   47 1
    31   19   20 1
    32   19   32 1
    33   19   69 1
    34   20   21 1
    35   20   48 1
    36   20   49 1
    37   21   22 1
    38   21   23 1
    39   21   31 1
    40   23   24 1
    41   23   50 1
    42   23   51 1
    43   24   25 1
    44   25   26 1
    45   25   52 1
    46   25   53 1
    47   26   30 1
    48   26   27 2
    49   27   28 1
    50   27   54 1
    51   28   29 2
    52   28   55 1
    53   29   30 1
    54   29   56 1
    55   31   57 1
    56   32   37 1
    57   32   33 1
    58   32   58 1
    59   33   34 1
    60   33   59 1
    61   33   60 1
    62   34   35 1
    63   34   61 1
    64   34   62 1
    65   35   36 1
    66   35   63 1
    67   35   64 1
    68   36   37 1
    69   36   65 1
    70   36   66 1
    71   37   67 1
    72   37   68 1
