@<TRIPOS>MOLECULE
ZINC67461527
   55    57     0     0     0
SMALL
USER_CHARGES

@<TRIPOS>ATOM
      1 C1         -0.0186    1.5238    0.0104 C.3       1 <0>        -0.1257
      2 C2          1.4029    2.0777   -0.0002 C.3       1 <0>        -0.1239
      3 C3          2.3107    1.1461   -0.8089 C.3       1 <0>        -0.0384
      4 C4          2.8643    0.0832    0.1043 C.2       1 <0>         0.1822
      5 N1          4.1024   -0.3115    0.1934 N.2       1 <0>        -0.2916
      6 N2          4.1932   -1.2498    1.0704 N.2       1 <0>        -0.2888
      7 C5          3.0150   -1.4899    1.5823 C.2       1 <0>         0.1703
      8 N3          2.1438   -0.6431    0.9906 N.pl3     1 <0>        -0.4653
      9 C6          0.7108   -0.5178    1.2584 C.3       1 <0>         0.1026
     10 C7          0.0021   -0.0041    0.0020 C.3       1 <0>        -0.1418
     11 C8          2.6891   -2.5183    2.6345 C.3       1 <0>        -0.0263
     12 C9          2.8274   -1.8895    4.0224 C.3       1 <0>        -0.1291
     13 C10         2.4965   -2.9336    5.0907 C.3       1 <0>         0.1361
     14 N4          2.6289   -2.3315    6.4196 N.am      1 <0>        -0.7386
     15 C11         2.3848   -3.0690    7.5210 C.2       1 <0>         0.7190
     16 O1          2.0546   -4.2341    7.4116 O.2       1 <0>        -0.5574
     17 N5          2.5066   -2.5151    8.7436 N.am      1 <0>        -0.5559
     18 N6          2.8871   -1.1726    8.8696 N.pl3     1 <0>        -0.4820
     19 C12         3.0089   -0.6187   10.0922 C.2       1 <0>         0.5631
     20 S1          3.4738    1.0218   10.2463 S.2       1 <0>        -0.5882
     21 N7          2.7648   -1.3562   11.1936 N.pl3     1 <0>        -0.6732
     22 C13         2.8972   -0.7541   12.5225 C.3       1 <0>         0.1367
     23 C14         4.3511   -0.8876   13.0207 C.3       1 <0>        -0.1313
     24 C15         4.2091   -1.1550   14.5397 C.3       1 <0>        -0.1247
     25 C16         2.9640   -2.0736   14.6101 C.3       1 <0>        -0.1258
     26 C17         2.0153   -1.5082   13.5331 C.3       1 <0>        -0.1335
     27 H1         -0.5336    1.8716    0.9060 H         1 <0>         0.0705
     28 H2         -0.5505    1.8811   -0.8713 H         1 <0>         0.0752
     29 H3          1.4030    3.0687   -0.4541 H         1 <0>         0.0827
     30 H4          1.7730    2.1472    1.0227 H         1 <0>         0.0646
     31 H5          1.7342    0.6773   -1.6064 H         1 <0>         0.0934
     32 H6          3.1311    1.7201   -1.2396 H         1 <0>         0.1016
     33 H7          0.3054   -1.4920    1.5318 H         1 <0>         0.0962
     34 H8          0.5539    0.1844    2.0771 H         1 <0>         0.0904
     35 H9         -1.0207   -0.3805   -0.0169 H         1 <0>         0.0899
     36 H10         0.5332   -0.3547   -0.8829 H         1 <0>         0.0818
     37 H11         1.6667   -2.8695    2.4949 H         1 <0>         0.0868
     38 H12         3.3772   -3.3590    2.5463 H         1 <0>         0.1066
     39 H13         3.8498   -1.5384    4.1620 H         1 <0>         0.0836
     40 H14         2.1393   -1.0488    4.1106 H         1 <0>         0.0709
     41 H15         1.4741   -3.2848    4.9511 H         1 <0>         0.0759
     42 H16         3.1846   -3.7743    5.0025 H         1 <0>         0.0795
     43 H17         2.8923   -1.4020    6.5069 H         1 <0>         0.3950
     44 H18         2.3309   -3.0459    9.5362 H         1 <0>         0.4318
     45 H19         3.0628   -0.6418    8.0770 H         1 <0>         0.4461
     46 H20         2.5014   -2.2857   11.1063 H         1 <0>         0.3929
     47 H21         2.6091    0.2965   12.4865 H         1 <0>         0.1237
     48 H22         4.8469   -1.7255   12.5305 H         1 <0>         0.0674
     49 H23         4.9007    0.0373   12.8459 H         1 <0>         0.0863
     50 H24         5.0900   -1.6681   14.9256 H         1 <0>         0.0721
     51 H25         4.0343   -0.2252   15.0809 H         1 <0>         0.0744
     52 H26         3.2358   -3.1031   14.3767 H         1 <0>         0.0670
     53 H27         2.5014   -2.0142   15.5953 H         1 <0>         0.0726
     54 H28         1.2997   -0.8233   13.9882 H         1 <0>         0.0838
     55 H29         1.4887   -2.3221   13.0348 H         1 <0>         0.0688
@<TRIPOS>BOND
     1    1   10 1
     2    1    2 1
     3    1   27 1
     4    1   28 1
     5    2    3 1
     6    2   29 1
     7    2   30 1
     8    3    4 1
     9    3   31 1
    10    3   32 1
    11    4    8 1
    12    4    5 2
    13    5    6 1
    14    6    7 2
    15    7    8 1
    16    7   11 1
    17    8    9 1
    18    9   10 1
    19    9   33 1
    20    9   34 1
    21   10   35 1
    22   10   36 1
    23   11   12 1
    24   11   37 1
    25   11   38 1
    26   12   13 1
    27   12   39 1
    28   12   40 1
    29   13   14 1
    30   13   41 1
    31   13   42 1
    32   14   15 am
    33   14   43 1
    34   15   16 2
    35   15   17 am
    36   17   18 1
    37   17   44 1
    38   18   19 1
    39   18   45 1
    40   19   20 2
    41   19   21 1
    42   21   22 1
    43   21   46 1
    44   22   26 1
    45   22   23 1
    46   22   47 1
    47   23   24 1
    48   23   48 1
    49   23   49 1
    50   24   25 1
    51   24   50 1
    52   24   51 1
    53   25   26 1
    54   25   52 1
    55   25   53 1
    56   26   54 1
    57   26   55 1
