@<TRIPOS>MOLECULE
ZINC09356982
   60    65     0     0     0
SMALL
USER_CHARGES
(4-hydroxyphenyl)methyl-(2-methyl-4-nitro-phenyl)-BLAHtrione
@<TRIPOS>ATOM
      1 C1          2.3434    1.5013    2.4980 C.3       1 <0>        -0.1231
      2 C2          3.0327    1.2340    1.1848 C.ar      1 <0>        -0.0513
      3 C3          4.3205    0.7342    1.1691 C.ar      1 <0>        -0.0428
      4 C4          4.9534    0.4883   -0.0352 C.ar      1 <0>        -0.0133
      5 C5          4.2997    0.7412   -1.2274 C.ar      1 <0>        -0.0484
      6 C6          3.0105    1.2363   -1.2181 C.ar      1 <0>        -0.0950
      7 C7          2.3742    1.4892   -0.0101 C.ar      1 <0>         0.1372
      8 N1          1.0671    1.9960    0.0026 N.am      1 <0>        -0.5290
      9 C8         -0.0144    1.2081    0.0087 C.2       1 <0>         0.5184
     10 O1          0.0021   -0.0041    0.0020 O.2       1 <0>        -0.4148
     11 C9         -1.2597    2.0646    0.0186 C.3       1 <0>        -0.1295
     12 H1         -1.8997    1.8648    0.8780 H         1 <0>         0.1912
     13 C10        -1.9933    1.9143   -1.3309 C.3       1 <0>         0.0428
     14 H2         -3.0559    2.1251   -1.2104 H         1 <0>         0.1807
     15 C11        -1.1408    4.1029   -1.3326 C.3       1 <0>         0.0977
     16 C12        -0.6985    3.5140    0.0126 C.3       1 <0>        -0.1142
     17 H3         -1.0384    4.1068    0.8618 H         1 <0>         0.1839
     18 C13         0.7994    3.3069    0.0092 C.2       1 <0>         0.5159
     19 O2          1.6288    4.1910    0.0126 O.2       1 <0>        -0.4006
     20 C14        -0.1079    5.0373   -1.8946 C.ar      1 <0>        -0.2132
     21 C15         1.2131    4.8865   -2.2534 C.ar      1 <0>        -0.0212
     22 C16         1.9213    5.9632   -2.7568 C.ar      1 <0>        -0.1204
     23 C17         1.2998    7.1907   -2.8981 C.ar      1 <0>        -0.0380
     24 C18        -0.0229    7.3467   -2.5396 C.ar      1 <0>        -0.1235
     25 C19        -0.7436    6.2677   -2.0328 C.ar      1 <0>         0.1719
     26 N2         -2.0710    6.1762   -1.6087 N.am      1 <0>        -0.6368
     27 C20        -2.3840    4.9371   -1.1833 C.2       1 <0>         0.5366
     28 O3         -3.4593    4.5658   -0.7624 O.2       1 <0>        -0.4384
     29 C21        -1.7891    0.5063   -1.8938 C.3       1 <0>        -0.0918
     30 C22        -2.6113    0.3419   -3.1460 C.ar      1 <0>        -0.1392
     31 C23        -3.9066   -0.1348   -3.0635 C.ar      1 <0>        -0.0798
     32 C24        -4.6642   -0.2811   -4.2094 C.ar      1 <0>        -0.1350
     33 C25        -4.1206    0.0400   -5.4447 C.ar      1 <0>         0.1301
     34 C26        -2.8188    0.5127   -5.5253 C.ar      1 <0>        -0.1376
     35 C27        -2.0672    0.6626   -4.3760 C.ar      1 <0>        -0.1157
     36 O4         -4.8622   -0.1079   -6.5739 O.3       1 <0>        -0.4970
     37 N3          6.3333   -0.0472   -0.0487 N.pl3     1 <0>         0.0173
     38 O5          6.9100   -0.2708    1.0006 O.2       1 <0>        -0.1382
     39 O6          6.8920   -0.2643   -1.1090 O.3       1 <0>        -0.1392
     40 H4          1.8057    0.6075    2.8146 H         1 <0>         0.0910
     41 H5          3.0860    1.7644    3.2512 H         1 <0>         0.0923
     42 H6          1.6399    2.3251    2.3779 H         1 <0>         0.0658
     43 H7          4.8335    0.5357    2.0985 H         1 <0>         0.1694
     44 H8          4.7965    0.5478   -2.1667 H         1 <0>         0.1689
     45 H9          2.4990    1.4298   -2.1493 H         1 <0>         0.1476
     46 H10         1.6967    3.9274   -2.1411 H         1 <0>         0.1252
     47 H11         2.9570    5.8454   -3.0392 H         1 <0>         0.1470
     48 H12         1.8527    8.0310   -3.2915 H         1 <0>         0.1511
     49 H13        -0.5014    8.3083   -2.6524 H         1 <0>         0.1466
     50 H14        -2.6952    6.9187   -1.6195 H         1 <0>         0.4399
     51 H15        -0.7351    0.3584   -2.1291 H         1 <0>         0.0966
     52 H16        -2.1029   -0.2299   -1.1538 H         1 <0>         0.1409
     53 H17        -4.3278   -0.3887   -2.1020 H         1 <0>         0.1372
     54 H18        -5.6774   -0.6492   -4.1440 H         1 <0>         0.1400
     55 H19        -2.3934    0.7636   -6.4858 H         1 <0>         0.1379
     56 H20        -1.0538    1.0308   -4.4382 H         1 <0>         0.1214
     57 H21        -4.7814   -0.9788   -6.9862 H         1 <0>         0.4034
     58 N4         -1.3718    2.9277   -2.1854 N.4       1 <0>        -0.5001
     59 H22        -1.9978    3.1701   -2.9623 H         1 <0>         0.4486
     60 H23        -0.4812    2.5796   -2.5594 H         1 <0>         0.4325
@<TRIPOS>BOND
     1    1    2 1
     2    1   40 1
     3    1   41 1
     4    1   42 1
     5    2    7 ar
     6    2    3 ar
     7    3    4 ar
     8    3   43 1
     9    4    5 ar
    10    4   37 1
    11    5    6 ar
    12    5   44 1
    13    6    7 ar
    14    6   45 1
    15    7    8 1
    16    8   18 am
    17    8    9 am
    18    9   10 2
    19    9   11 1
    20   11   12 1
    21   11   16 1
    22   11   13 1
    23   13   14 1
    24   13   29 1
    25   13   58 1
    26   15   27 1
    27   15   16 1
    28   15   20 1
    29   15   58 1
    30   16   17 1
    31   16   18 1
    32   18   19 2
    33   20   25 ar
    34   20   21 ar
    35   21   22 ar
    36   21   46 1
    37   22   23 ar
    38   22   47 1
    39   23   24 ar
    40   23   48 1
    41   24   25 ar
    42   24   49 1
    43   25   26 1
    44   26   27 am
    45   26   50 1
    46   27   28 2
    47   29   30 1
    48   29   51 1
    49   29   52 1
    50   30   35 ar
    51   30   31 ar
    52   31   32 ar
    53   31   53 1
    54   32   33 ar
    55   32   54 1
    56   33   34 ar
    57   33   36 1
    58   34   35 ar
    59   34   55 1
    60   35   56 1
    61   36   57 1
    62   37   38 2
    63   37   39 1
    64   58   59 1
    65   58   60 1
