@<TRIPOS>MOLECULE
ZINC51892789
   38    39     0     0     0
SMALL
USER_CHARGES

@<TRIPOS>ATOM
      1 C1          0.2847    0.8814   -1.0682 C.ar      1 <0>        -0.0530
      2 C2          1.4684    1.5896   -1.0663 C.ar      1 <0>        -0.0770
      3 C3          2.3856    1.4077   -0.0299 C.ar      1 <0>        -0.0684
      4 C4          2.0971    0.5079    0.9996 C.ar      1 <0>        -0.0024
      5 C5          0.9080   -0.1944    0.9847 C.ar      1 <0>        -0.0497
      6 C6          0.0046   -0.0083   -0.0460 C.ar      1 <0>        -0.0209
      7 N1         -1.2679   -0.7643   -0.0557 N.pl3     1 <0>         0.0287
      8 O1         -2.0596   -0.6039   -0.9552 O.2       1 <0>        -0.1414
      9 O2         -1.5155   -1.5424    0.8360 O.3       1 <0>        -0.1438
     10 Cl1         3.2305    0.2731    2.2934 Cl        1 <0>        -0.0108
     11 C7          3.6558    2.1626   -0.0217 C.2       1 <0>         0.5576
     12 O3          4.7138    1.5712    0.0706 O.2       1 <0>        -0.5029
     13 N2          3.6413    3.5070   -0.1165 N.am      1 <0>        -0.6008
     14 C8          2.3712    4.2452   -0.0960 C.3       1 <0>         0.0981
     15 C9          2.4415    5.3173    0.9960 C.3       1 <0>        -0.1360
     16 C10         3.6745    6.1941    0.7657 C.3       1 <0>        -0.1154
     17 C11         4.9375    5.3340    0.8512 C.3       1 <0>        -0.1000
     18 H1          4.9856    4.8545    1.8289 H         1 <0>         0.0789
     19 C12         4.8957    4.2625   -0.2363 C.3       1 <0>         0.1130
     20 C13         6.1712    6.2172    0.6543 C.3       1 <0>        -0.1126
     21 C14         7.4355    5.3813    0.8633 C.3       1 <0>         0.0711
     22 O4          8.5877    6.2062    0.6794 O.3       1 <0>        -0.5756
     23 H2         -0.4274    1.0249   -1.8674 H         1 <0>         0.1691
     24 H3          1.6853    2.2832   -1.8652 H         1 <0>         0.1632
     25 H4          0.6832   -0.8905    1.7792 H         1 <0>         0.1718
     26 H5          2.2086    4.7196   -1.0639 H         1 <0>         0.0796
     27 H6          1.5526    3.5582    0.1186 H         1 <0>         0.0839
     28 H7          1.5440    5.9346    0.9582 H         1 <0>         0.0827
     29 H8          2.5132    4.8379    1.9723 H         1 <0>         0.0696
     30 H9          3.6142    6.6537   -0.2208 H         1 <0>         0.0697
     31 H10         3.7135    6.9731    1.5272 H         1 <0>         0.0725
     32 H11         5.7423    3.5869   -0.1143 H         1 <0>         0.0977
     33 H12         4.9436    4.7383   -1.2158 H         1 <0>         0.0763
     34 H13         6.1683    6.6253   -0.3564 H         1 <0>         0.0741
     35 H14         6.1522    7.0339    1.3759 H         1 <0>         0.0767
     36 H15         7.4383    4.9732    1.8740 H         1 <0>         0.0459
     37 H16         7.4544    4.5646    0.1417 H         1 <0>         0.0478
     38 H17         9.4273    5.7410    0.7969 H         1 <0>         0.3824
@<TRIPOS>BOND
     1    1    6 ar
     2    1    2 ar
     3    1   23 1
     4    2    3 ar
     5    2   24 1
     6    3    4 ar
     7    3   11 1
     8    4    5 ar
     9    4   10 1
    10    5    6 ar
    11    5   25 1
    12    6    7 1
    13    7    8 2
    14    7    9 1
    15   11   12 2
    16   11   13 am
    17   13   19 1
    18   13   14 1
    19   14   15 1
    20   14   26 1
    21   14   27 1
    22   15   16 1
    23   15   28 1
    24   15   29 1
    25   16   17 1
    26   16   30 1
    27   16   31 1
    28   17   18 1
    29   17   19 1
    30   17   20 1
    31   19   32 1
    32   19   33 1
    33   20   21 1
    34   20   34 1
    35   20   35 1
    36   21   22 1
    37   21   36 1
    38   21   37 1
    39   22   38 1
