@<TRIPOS>MOLECULE
ZINC09291590
   48    50     0     0     0
SMALL
USER_CHARGES

@<TRIPOS>ATOM
      1 C1         -0.0184    1.5028    0.0103 C.3       1 <0>        -0.1561
      2 C2          0.0021   -0.0041    0.0020 C.2       1 <0>         0.1263
      3 N1          0.0216   -0.6592    1.1227 N.2       1 <0>        -0.1754
      4 N2          0.0237    0.0347    2.3398 N.pl3     1 <0>        -0.5433
      5 C3          0.0444   -0.6596    3.5276 C.2       1 <0>         0.5850
      6 N3          0.0691   -1.9725    3.6425 N.2       1 <0>        -0.4966
      7 C4          0.0849   -2.3165    4.9306 C.2       1 <0>         0.3563
      8 C5          0.0692   -1.1438    5.6788 C.2       1 <0>        -0.1765
      9 N4          0.0485   -0.0982    4.7667 N.pl3     1 <0>        -0.4365
     10 C6          0.0316    1.3332    5.0780 C.3       1 <0>         0.0770
     11 C7         -1.4165    1.8114    5.2008 C.3       1 <0>         0.0909
     12 H1         -1.9398    1.2004    5.9364 H         1 <0>         0.1208
     13 C8         -1.4343    3.2746    5.6477 C.3       1 <0>         0.0500
     14 O1         -2.7836    3.6869    5.8748 O.3       1 <0>        -0.5597
     15 O2         -2.0666    1.6924    3.9338 O.3       1 <0>        -0.5391
     16 C9          0.0817   -1.2251    7.0828 C.2       1 <0>         0.5999
     17 O3          0.0679   -0.2110    7.7585 O.2       1 <0>        -0.5255
     18 N5          0.1088   -2.4376    7.6738 N.am      1 <0>        -0.6511
     19 H2          0.1176   -2.4969    8.6419 H         1 <0>         0.4393
     20 C10         0.1234   -3.5646    6.9414 C.2       1 <0>         0.7108
     21 O4          0.1470   -4.6401    7.5085 O.2       1 <0>        -0.5343
     22 N6          0.1123   -3.5322    5.5955 N.am      1 <0>        -0.5072
     23 C11         0.1290   -4.7831    4.8331 C.3       1 <0>         0.0883
     24 C12        -0.0001   -0.7340   -1.2783 C.ar      1 <0>        -0.0771
     25 C13        -0.0153   -0.0331   -2.4863 C.ar      1 <0>        -0.0785
     26 C14        -0.0168   -0.7222   -3.6809 C.ar      1 <0>        -0.1339
     27 C15        -0.0033   -2.1066   -3.6881 C.ar      1 <0>        -0.0857
     28 C16         0.0118   -2.8117   -2.4993 C.ar      1 <0>        -0.1523
     29 C17         0.0188   -2.1354   -1.2905 C.ar      1 <0>         0.1491
     30 O5          0.0389   -2.8274   -0.1220 O.3       1 <0>        -0.4714
     31 H3          1.0042    1.8801    0.0026 H         1 <0>         0.0884
     32 H4         -0.5455    1.8639   -0.8728 H         1 <0>         0.0932
     33 H5         -0.5286    1.8543    0.9071 H         1 <0>         0.0654
     34 H6          0.0105    1.0046    2.3451 H         1 <0>         0.3931
     35 H7          0.5525    1.5064    6.0197 H         1 <0>         0.1249
     36 H8          0.5298    1.8844    4.2804 H         1 <0>         0.0946
     37 H9         -0.8622    3.3799    6.5694 H         1 <0>         0.0643
     38 H10        -0.9900    3.8971    4.8711 H         1 <0>         0.0522
     39 H11        -2.8710    4.6063    6.1613 H         1 <0>         0.3849
     40 H12        -1.6536    2.2108    3.2296 H         1 <0>         0.3635
     41 H13         1.1605   -5.0747    4.6358 H         1 <0>         0.0743
     42 H14        -0.3661   -5.5656    5.4081 H         1 <0>         0.0934
     43 H15        -0.3952   -4.6397    3.8882 H         1 <0>         0.0943
     44 H16        -0.0261    1.0469   -2.4849 H         1 <0>         0.1328
     45 H17        -0.0288   -0.1797   -4.6146 H         1 <0>         0.1305
     46 H18        -0.0049   -2.6386   -4.6279 H         1 <0>         0.1297
     47 H19         0.0218   -3.8916   -2.5130 H         1 <0>         0.1336
     48 H20        -0.8386   -3.0398    0.2245 H         1 <0>         0.3933
@<TRIPOS>BOND
     1    1    2 1
     2    1   31 1
     3    1   32 1
     4    1   33 1
     5    2    3 2
     6    2   24 1
     7    3    4 1
     8    4    5 1
     9    4   34 1
    10    5    9 1
    11    5    6 2
    12    6    7 1
    13    7   22 1
    14    7    8 2
    15    8    9 1
    16    8   16 1
    17    9   10 1
    18   10   11 1
    19   10   35 1
    20   10   36 1
    21   11   12 1
    22   11   13 1
    23   11   15 1
    24   13   14 1
    25   13   37 1
    26   13   38 1
    27   14   39 1
    28   15   40 1
    29   16   17 2
    30   16   18 am
    31   18   19 1
    32   18   20 am
    33   20   21 2
    34   20   22 am
    35   22   23 1
    36   23   41 1
    37   23   42 1
    38   23   43 1
    39   24   29 ar
    40   24   25 ar
    41   25   26 ar
    42   25   44 1
    43   26   27 ar
    44   26   45 1
    45   27   28 ar
    46   27   46 1
    47   28   29 ar
    48   28   47 1
    49   29   30 1
    50   30   48 1
