@<TRIPOS>MOLECULE
ZINC50018989
   39    40     0     0     0
SMALL
USER_CHARGES

@<TRIPOS>ATOM
      1 C1          0.0380    1.4245   -0.0261 C.3       1 <0>         0.0341
      2 O1          0.0500   -0.0045   -0.0285 O.3       1 <0>        -0.3458
      3 C2          0.6389   -0.6132    1.0201 C.2       1 <0>         0.5245
      4 O2          1.1288    0.0514    1.9120 O.2       1 <0>        -0.5225
      5 C3          0.6886   -2.0825    1.0849 C.ar      1 <0>        -0.2297
      6 C4          0.0198   -2.8517    0.1260 C.ar      1 <0>         0.0145
      7 C5          0.0705   -4.2306    0.1927 C.ar      1 <0>         0.0596
      8 C6          0.7856   -4.8576    1.2127 C.ar      1 <0>         0.1861
      9 C7          1.4484   -4.1061    2.1637 C.ar      1 <0>        -0.2512
     10 C8          1.4120   -2.7194    2.1057 C.ar      1 <0>         0.3134
     11 N1          2.0847   -1.9634    3.0599 N.pl3     1 <0>        -0.8479
     12 F1          0.8301   -6.2066    1.2713 F         1 <0>        -0.1242
     13 N2         -0.5991   -5.0018   -0.7673 N.pl3     1 <0>        -0.6657
     14 C9         -1.9944   -5.4115   -0.5579 C.3       1 <0>         0.1433
     15 C10        -2.8221   -4.9823   -1.7734 C.3       1 <0>        -0.1164
     16 C11        -2.1850   -5.5477   -3.0448 C.3       1 <0>        -0.1041
     17 C12        -0.7699   -4.9864   -3.2014 C.3       1 <0>        -0.1275
     18 C13         0.0791   -5.4106   -2.0049 C.3       1 <0>         0.1457
     19 C14        -3.0156   -5.1558   -4.2396 C.2       1 <0>         0.5196
     20 O3         -4.0182   -4.4901   -4.0891 O.2       1 <0>        -0.5416
     21 N3         -2.6444   -5.5452   -5.4753 N.am      1 <0>        -0.8572
     22 H1          1.0625    1.7964   -0.0090 H         1 <0>         0.0622
     23 H2         -0.4645    1.7851   -0.9236 H         1 <0>         0.1046
     24 H3         -0.4930    1.7819    0.8561 H         1 <0>         0.0626
     25 H4         -0.5352   -2.3683   -0.6644 H         1 <0>         0.1463
     26 H5          1.9997   -4.5982    2.9513 H         1 <0>         0.1444
     27 H6          1.9898   -0.9981    3.0690 H         1 <0>         0.4192
     28 H7          2.6487   -2.4015    3.7163 H         1 <0>         0.4000
     29 H8         -2.0443   -6.4946   -0.4459 H         1 <0>         0.0541
     30 H9         -2.3857   -4.9310    0.3388 H         1 <0>         0.0741
     31 H10        -3.8382   -5.3641   -1.6748 H         1 <0>         0.0771
     32 H11        -2.8459   -3.8941   -1.8313 H         1 <0>         0.0734
     33 H12        -2.1390   -6.6345   -2.9755 H         1 <0>         0.0983
     34 H13        -0.3254   -5.3712   -4.1193 H         1 <0>         0.0733
     35 H14        -0.8130   -3.8981   -3.2459 H         1 <0>         0.0724
     36 H15         1.0555   -4.9294   -2.0626 H         1 <0>         0.0740
     37 H16         0.2021   -6.4936   -2.0135 H         1 <0>         0.0551
     38 H17        -1.8426   -6.0777   -5.5957 H         1 <0>         0.4010
     39 H18        -3.1791   -5.2930   -6.2444 H         1 <0>         0.4011
@<TRIPOS>BOND
     1    1    2 1
     2    1   22 1
     3    1   23 1
     4    1   24 1
     5    2    3 1
     6    3    4 2
     7    3    5 1
     8    5   10 ar
     9    5    6 ar
    10    6    7 ar
    11    6   25 1
    12    7    8 ar
    13    7   13 1
    14    8    9 ar
    15    8   12 1
    16    9   10 ar
    17    9   26 1
    18   10   11 1
    19   11   27 1
    20   11   28 1
    21   13   18 1
    22   13   14 1
    23   14   15 1
    24   14   29 1
    25   14   30 1
    26   15   16 1
    27   15   31 1
    28   15   32 1
    29   16   17 1
    30   16   19 1
    31   16   33 1
    32   17   18 1
    33   17   34 1
    34   17   35 1
    35   18   36 1
    36   18   37 1
    37   19   20 2
    38   19   21 am
    39   21   38 1
    40   21   39 1
