@<TRIPOS>MOLECULE
ZINC42405512
   37    38     0     0     0
SMALL
USER_CHARGES

@<TRIPOS>ATOM
      1 C1          2.9770   -1.7010    0.2192 C.ar      1 <0>        -0.0425
      2 C2          3.7058   -0.5288    0.1680 C.ar      1 <0>        -0.0948
      3 C3          3.0622    0.6771   -0.0783 C.ar      1 <0>         0.2643
      4 C4          1.6867    0.6998   -0.2722 C.ar      1 <0>        -0.0732
      5 C5          0.9641   -0.4757   -0.2196 C.ar      1 <0>        -0.0363
      6 C6          1.6082   -1.6748    0.0257 C.ar      1 <0>        -0.0985
      7 C7          0.8163   -2.9557    0.0824 C.3       1 <0>         0.1190
      8 O1          0.3822   -3.1884    1.4238 O.3       1 <0>        -0.5657
      9 N1          0.9966    1.9826   -0.5344 N.pl3     1 <0>         0.0425
     10 O2         -0.2093    2.0148   -0.6149 O.2       1 <0>        -0.1828
     11 O3          1.6387    2.9982   -0.6680 O.3       1 <0>        -0.1416
     12 N2          3.7961    1.8643   -0.1303 N.pl3     1 <0>        -0.6611
     13 C8          4.4787    2.2689   -1.3669 C.3       1 <0>         0.1493
     14 C9          5.9532    2.5384   -1.0508 C.3       1 <0>        -0.1377
     15 C10         6.0488    3.5614    0.0835 C.3       1 <0>        -0.1140
     16 C11         5.3809    2.9970    1.3394 C.3       1 <0>        -0.1232
     17 C12         3.8952    2.7354    1.0487 C.3       1 <0>         0.1594
     18 H1          3.3874    3.6791    0.8495 H         1 <0>         0.0913
     19 C13         3.2585    2.0561    2.2337 C.2       1 <0>         0.5053
     20 O4          3.3949    0.8617    2.3934 O.2       1 <0>        -0.5251
     21 N3          2.5375    2.7760    3.1160 N.am      1 <0>        -0.8498
     22 H2          3.4774   -2.6396    0.4062 H         1 <0>         0.1403
     23 H3          4.7749   -0.5499    0.3195 H         1 <0>         0.1435
     24 H4         -0.1052   -0.4588   -0.3703 H         1 <0>         0.1490
     25 H5         -0.0519   -2.8753   -0.5717 H         1 <0>         0.0608
     26 H6          1.4429   -3.7851   -0.2458 H         1 <0>         0.0632
     27 H7         -0.1348   -3.9980    1.5350 H         1 <0>         0.3852
     28 H8          4.4032    1.4696   -2.1042 H         1 <0>         0.0699
     29 H9          4.0174    3.1753   -1.7591 H         1 <0>         0.0686
     30 H10         6.4353    1.6099   -0.7449 H         1 <0>         0.0654
     31 H11         6.4495    2.9315   -1.9380 H         1 <0>         0.0750
     32 H12         7.0971    3.7734    0.2938 H         1 <0>         0.0684
     33 H13         5.5450    4.4812   -0.2136 H         1 <0>         0.0690
     34 H14         5.8684    2.0641    1.6228 H         1 <0>         0.0733
     35 H15         5.4699    3.7164    2.1534 H         1 <0>         0.0746
     36 H16         2.4285    3.7314    2.9882 H         1 <0>         0.4045
     37 H17         2.1277    2.3388    3.8787 H         1 <0>         0.4045
@<TRIPOS>BOND
     1    1    6 ar
     2    1    2 ar
     3    1   22 1
     4    2    3 ar
     5    2   23 1
     6    3    4 ar
     7    3   12 1
     8    4    5 ar
     9    4    9 1
    10    5    6 ar
    11    5   24 1
    12    6    7 1
    13    7    8 1
    14    7   25 1
    15    7   26 1
    16    8   27 1
    17    9   10 2
    18    9   11 1
    19   12   17 1
    20   12   13 1
    21   13   14 1
    22   13   28 1
    23   13   29 1
    24   14   15 1
    25   14   30 1
    26   14   31 1
    27   15   16 1
    28   15   32 1
    29   15   33 1
    30   16   17 1
    31   16   34 1
    32   16   35 1
    33   17   18 1
    34   17   19 1
    35   19   20 2
    36   19   21 am
    37   21   36 1
    38   21   37 1
