@<TRIPOS>MOLECULE
ZINC67528988
   56    56     0     0     0
SMALL
USER_CHARGES

@<TRIPOS>ATOM
      1 C1         -0.0187    1.5258    0.0104 C.3       1 <0>        -0.1864
      2 C2          0.0021   -0.0041    0.0020 C.3       1 <0>         0.0282
      3 H1          0.5123   -0.3551   -0.8949 H         1 <0>         0.1369
      4 C3         -1.4337   -0.5331    0.0113 C.3       1 <0>        -0.1408
      5 C4         -1.4079   -2.0642    0.0026 C.3       1 <0>        -0.1394
      6 C5         -0.5995   -2.5582    1.2058 C.3       1 <0>        -0.1458
      7 C6          0.8054   -1.9542    1.1523 C.3       1 <0>        -0.0142
      8 N1          0.7134   -0.4897    1.1906 N.4       1 <0>        -0.3760
      9 C7          2.0657    0.0833    1.2183 C.3       1 <0>        -0.0294
     10 C8          2.7645   -0.3212    2.5179 C.3       1 <0>         0.1176
     11 N2          4.1132    0.2502    2.5455 N.am      1 <0>        -0.7468
     12 C9          4.9191    0.0248    3.6020 C.2       1 <0>         0.7121
     13 O1          4.5267   -0.6528    4.5322 O.2       1 <0>        -0.5760
     14 N3          6.1598    0.5505    3.6274 N.am      1 <0>        -0.7346
     15 C10         7.0358    0.3055    4.7758 C.3       1 <0>         0.1249
     16 C11         8.3762    1.0092    4.5542 C.3       1 <0>         0.1277
     17 N4          9.2521    0.7642    5.7026 N.am      1 <0>        -0.7117
     18 C12        10.4929    1.2899    5.7280 C.2       1 <0>         0.6540
     19 O2         10.8850    1.9670    4.7983 O.2       1 <0>        -0.5615
     20 O3         11.2979    1.0647    6.7834 O.3       1 <0>        -0.3557
     21 C13        12.5998    1.6526    6.7434 C.3       1 <0>         0.1349
     22 C14        12.4696    3.1737    6.6428 C.3       1 <0>        -0.1867
     23 C15        13.3628    1.2893    8.0188 C.3       1 <0>        -0.1423
     24 C16        13.3608    1.1242    5.5258 C.3       1 <0>        -0.1867
     25 H2          1.0039    1.9031    0.0027 H         1 <0>         0.0820
     26 H3         -0.5459    1.8868   -0.8726 H         1 <0>         0.1075
     27 H4         -0.5289    1.8773    0.9072 H         1 <0>         0.0824
     28 H5         -1.9449   -0.1828    0.9081 H         1 <0>         0.0891
     29 H6         -1.9601   -0.1729   -0.8726 H         1 <0>         0.1129
     30 H7         -2.4267   -2.4464    0.0663 H         1 <0>         0.0958
     31 H8         -0.9424   -2.4157   -0.9182 H         1 <0>         0.0821
     32 H9         -1.0933   -2.2500    2.1274 H         1 <0>         0.0890
     33 H10        -0.5296   -3.6455    1.1757 H         1 <0>         0.1139
     34 H11         1.3836   -2.3040    2.0074 H         1 <0>         0.1339
     35 H12         1.2983   -2.2632    0.2305 H         1 <0>         0.1305
     36 H13         2.6360   -0.2901    0.3677 H         1 <0>         0.1371
     37 H14         2.0011    1.1700    1.1635 H         1 <0>         0.1417
     38 H15         2.1942    0.0522    3.3685 H         1 <0>         0.0888
     39 H16         2.8291   -1.4079    2.5727 H         1 <0>         0.0891
     40 H17         4.4262    0.7908    1.8034 H         1 <0>         0.4044
     41 H18         6.4728    1.0911    2.8853 H         1 <0>         0.4033
     42 H19         6.5668    0.6937    5.6799 H         1 <0>         0.0816
     43 H20         7.2017   -0.7663    4.8841 H         1 <0>         0.0816
     44 H21         8.8452    0.6209    3.6501 H         1 <0>         0.0795
     45 H22         8.2103    2.0810    4.4459 H         1 <0>         0.0796
     46 H23         8.9392    0.2236    6.4447 H         1 <0>         0.4107
     47 H24        11.9274    3.5501    7.5103 H         1 <0>         0.0603
     48 H25        13.4626    3.6222    6.6123 H         1 <0>         0.0732
     49 H26        11.9260    3.4326    5.7342 H         1 <0>         0.0860
     50 H27        13.4556    0.2056    8.0904 H         1 <0>         0.0678
     51 H28        14.3559    1.7377    7.9883 H         1 <0>         0.0835
     52 H29        12.8207    1.6657    8.8862 H         1 <0>         0.0679
     53 H30        12.8172    1.3831    4.6171 H         1 <0>         0.0860
     54 H31        14.3538    1.5727    5.4953 H         1 <0>         0.0732
     55 H32        13.4535    0.0406    5.5974 H         1 <0>         0.0603
     56 H33         0.2132   -0.2063    2.0198 H         1 <0>         0.4232
@<TRIPOS>BOND
     1    1    2 1
     2    1   25 1
     3    1   26 1
     4    1   27 1
     5    2    3 1
     6    2    8 1
     7    2    4 1
     8    4    5 1
     9    4   28 1
    10    4   29 1
    11    5    6 1
    12    5   30 1
    13    5   31 1
    14    6    7 1
    15    6   32 1
    16    6   33 1
    17    7    8 1
    18    7   34 1
    19    7   35 1
    20    8    9 1
    21    8   56 1
    22    9   10 1
    23    9   36 1
    24    9   37 1
    25   10   11 1
    26   10   38 1
    27   10   39 1
    28   11   12 am
    29   11   40 1
    30   12   13 2
    31   12   14 am
    32   14   15 1
    33   14   41 1
    34   15   16 1
    35   15   42 1
    36   15   43 1
    37   16   17 1
    38   16   44 1
    39   16   45 1
    40   17   18 am
    41   17   46 1
    42   18   19 2
    43   18   20 1
    44   20   21 1
    45   21   22 1
    46   21   23 1
    47   21   24 1
    48   22   47 1
    49   22   48 1
    50   22   49 1
    51   23   50 1
    52   23   51 1
    53   23   52 1
    54   24   53 1
    55   24   54 1
    56   24   55 1
