@<TRIPOS>MOLECULE
ZINC16701610
   44    47     0     0     0
SMALL
USER_CHARGES
N-(1,3-benzodioxol-5-yl)-2-methyl-4-(1,1,3-trioxo-1,2-thiazolidin-2-yl)benzenesulfonamide
@<TRIPOS>ATOM
      1 C1          2.6483   -2.2301    2.6140 C.3       1 <0>        -0.1479
      2 C2          3.6668   -3.3135    2.8589 C.ar      1 <0>         0.0476
      3 C3          3.3497   -4.6314    2.5931 C.ar      1 <0>        -0.1409
      4 C4          4.2886   -5.6290    2.8191 C.ar      1 <0>         0.2297
      5 C5          5.5443   -5.2980    3.3120 C.ar      1 <0>        -0.1730
      6 C6          5.8567   -3.9781    3.5712 C.ar      1 <0>         0.0159
      7 C7          4.9174   -2.9873    3.3500 C.ar      1 <0>        -0.6986
      8 S1          5.3179   -1.3050    3.6878 S.o2      1 <0>         2.6947
      9 O1          4.9470   -0.5600    2.5360 O.2       1 <0>        -0.9383
     10 O2          6.6412   -1.2987    4.2056 O.2       1 <0>        -0.9378
     11 N1          4.3267   -0.8028    4.9157 N.pl3     1 <0>        -1.0538
     12 C8          4.4674   -1.3490    6.1962 C.ar      1 <0>         0.1704
     13 C9          4.5898   -2.7230    6.3555 C.ar      1 <0>        -0.1527
     14 C10         4.7289   -3.2638    7.6196 C.ar      1 <0>        -0.0669
     15 C11         4.7475   -2.4372    8.7312 C.ar      1 <0>         0.0235
     16 C12         4.6248   -1.0588    8.5748 C.ar      1 <0>         0.0593
     17 C13         4.4851   -0.5174    7.3076 C.ar      1 <0>        -0.1108
     18 O3          4.6714   -0.4738    9.8073 O.3       1 <0>        -0.3051
     19 C14         5.2332   -1.4680   10.6842 C.3       1 <0>         0.2127
     20 O4          4.8712   -2.7156   10.0631 O.3       1 <0>        -0.3058
     21 N2          3.9704   -6.9650    2.5512 N.am      1 <0>        -0.8778
     22 C15         2.7386   -7.4961    2.5406 C.2       1 <0>         0.4903
     23 O5          1.7633   -6.8049    2.7456 O.2       1 <0>        -0.4586
     24 C16         2.5944   -8.9623    2.2648 C.3       1 <0>        -0.1441
     25 C17         3.8942   -9.4717    1.5874 C.3       1 <0>        -0.5755
     26 S2          5.0604   -8.1849    2.1945 S.o2      1 <0>         2.5340
     27 O6          5.8624   -7.6855    1.1330 O.2       1 <0>        -0.9110
     28 O7          5.6332   -8.5644    3.4383 O.2       1 <0>        -0.9118
     29 H1          2.8134   -1.7920    1.6296 H         1 <0>         0.1061
     30 H2          1.6462   -2.6566    2.6583 H         1 <0>         0.0905
     31 H3          2.7486   -1.4579    3.3767 H         1 <0>         0.0694
     32 H4          2.3723   -4.8856    2.2102 H         1 <0>         0.1566
     33 H5          6.2769   -6.0716    3.4885 H         1 <0>         0.1394
     34 H6          6.8342   -3.7196    3.9506 H         1 <0>         0.1606
     35 H7          3.6486   -0.1300    4.7473 H         1 <0>         0.4301
     36 H8          4.5764   -3.3697    5.4906 H         1 <0>         0.1451
     37 H9          4.8243   -4.3327    7.7411 H         1 <0>         0.1445
     38 H10         4.3903    0.5513    7.1841 H         1 <0>         0.1456
     39 H11         4.7936   -1.3937   11.6789 H         1 <0>         0.1349
     40 H12         6.3172   -1.3656   10.7348 H         1 <0>         0.0887
     41 H13         1.7453   -9.1318    1.6027 H         1 <0>         0.1487
     42 H14         2.4384   -9.4926    3.2042 H         1 <0>         0.1433
     43 H15         3.8112   -9.4543    0.5007 H         1 <0>         0.1614
     44 H16         4.1708  -10.4627    1.9472 H         1 <0>         0.1671
@<TRIPOS>BOND
     1    1    2 1
     2    1   29 1
     3    1   30 1
     4    1   31 1
     5    2    7 ar
     6    2    3 ar
     7    3    4 ar
     8    3   32 1
     9    4    5 ar
    10    4   21 1
    11    5    6 ar
    12    5   33 1
    13    6    7 ar
    14    6   34 1
    15    7    8 1
    16    8    9 2
    17    8   10 2
    18    8   11 1
    19   11   12 1
    20   11   35 1
    21   12   17 ar
    22   12   13 ar
    23   13   14 ar
    24   13   36 1
    25   14   15 ar
    26   14   37 1
    27   15   20 1
    28   15   16 ar
    29   16   17 ar
    30   16   18 1
    31   17   38 1
    32   18   19 1
    33   19   20 1
    34   19   39 1
    35   19   40 1
    36   21   26 1
    37   21   22 am
    38   22   23 2
    39   22   24 1
    40   24   25 1
    41   24   41 1
    42   24   42 1
    43   25   26 1
    44   25   43 1
    45   25   44 1
    46   26   27 2
    47   26   28 2
