@<TRIPOS>MOLECULE
ZINC11959373
   34    35     0     0     0
SMALL
USER_CHARGES
3-bromo-5-chloro-2-(2-phenoxyethoxy)benzaldehyde oxime
@<TRIPOS>ATOM
      1 C1         -6.7969    5.5344   -0.8539 C.ar      1 <0>        -0.1585
      2 C2         -6.5133    4.1871   -0.9806 C.ar      1 <0>        -0.0802
      3 C3         -5.2645    3.7075   -0.6360 C.ar      1 <0>        -0.1510
      4 C4         -4.2944    4.5790   -0.1625 C.ar      1 <0>         0.1300
      5 C5         -4.5833    5.9295   -0.0310 C.ar      1 <0>        -0.2107
      6 C6         -5.8317    6.4051   -0.3827 C.ar      1 <0>        -0.0803
      7 O1         -3.0651    4.1096    0.1771 O.3       1 <0>        -0.3069
      8 C7         -2.1161    5.0641    0.6571 C.3       1 <0>         0.0603
      9 C8         -0.8011    4.3547    0.9861 C.3       1 <0>         0.0629
     10 O2         -0.2618    3.7753   -0.2036 O.3       1 <0>        -0.3124
     11 C9          0.9622    3.1949   -0.1067 C.ar      1 <0>         0.1554
     12 C10         1.0712    1.8229    0.1552 C.ar      1 <0>        -0.1029
     13 C11         2.3345    1.2356    0.2476 C.ar      1 <0>        -0.0498
     14 C12         3.4663    2.0088    0.0859 C.ar      1 <0>        -0.0445
     15 C13         3.3542    3.3660   -0.1678 C.ar      1 <0>        -0.0565
     16 C14         2.1087    3.9586   -0.2619 C.ar      1 <0>        -0.1133
     17 Br1         1.9687    5.8121   -0.6098 Br        1 <0>        -0.0186
     18 Cl1         5.0366    1.2776    0.2015 Cl        1 <0>        -0.0473
     19 C15        -0.1421    1.0022    0.3265 C.2       1 <0>         0.1457
     20 N1         -0.0970   -0.2726    0.1090 N.2       1 <0>        -0.3062
     21 O3          1.1334   -0.8917   -0.2196 O.3       1 <0>        -0.4317
     22 H1         -7.7738    5.9074   -1.1239 H         1 <0>         0.1239
     23 H2         -7.2687    3.5091   -1.3496 H         1 <0>         0.1296
     24 H3         -5.0436    2.6549   -0.7348 H         1 <0>         0.1309
     25 H4         -3.8312    6.6092    0.3417 H         1 <0>         0.1267
     26 H5         -6.0556    7.4570   -0.2847 H         1 <0>         0.1247
     27 H6         -1.9384    5.8255   -0.1167 H         1 <0>         0.0783
     28 H7         -2.5088    5.5475    1.5638 H         1 <0>         0.0876
     29 H8         -0.0851    5.0817    1.3970 H         1 <0>         0.0845
     30 H9         -0.9867    3.5637    1.7276 H         1 <0>         0.0740
     31 H10         2.4260    0.1779    0.4456 H         1 <0>         0.1731
     32 H11         4.2446    3.9643   -0.2931 H         1 <0>         0.1507
     33 H12        -1.0854    1.4738    0.6392 H         1 <0>         0.1974
     34 H13         1.1717   -1.9754   -0.4045 H         1 <0>         0.4347
@<TRIPOS>BOND
     1    1    6 ar
     2    1    2 ar
     3    1   22 1
     4    2    3 ar
     5    2   23 1
     6    3    4 ar
     7    3   24 1
     8    4    5 ar
     9    4    7 1
    10    5    6 ar
    11    5   25 1
    12    6   26 1
    13    7    8 1
    14    8    9 1
    15    8   27 1
    16    8   28 1
    17    9   10 1
    18    9   29 1
    19    9   30 1
    20   10   11 1
    21   11   16 ar
    22   11   12 ar
    23   12   13 ar
    24   12   19 1
    25   13   14 ar
    26   13   31 1
    27   14   15 ar
    28   14   18 1
    29   15   16 ar
    30   15   32 1
    31   16   17 1
    32   19   20 2
    33   19   33 1
    34   20   21 1
    35   21   34 1
