@<TRIPOS>MOLECULE
ZINC02511233
   44    47     0     0     0
SMALL
USER_CHARGES
N-[(6-bromo-4-oxo-chromen-3-yl)methyleneamino]-2-(4-fluoro-2-isoxazol-5-yl-phenoxy)acetamide
@<TRIPOS>ATOM
      1 C1         -8.6022   -0.6638    0.0387 C.ar      1 <0>        -0.0936
      2 C2         -7.3324   -0.1182    0.0304 C.ar      1 <0>        -0.1812
      3 C3         -7.1669    1.2570    0.0429 C.ar      1 <0>         0.1485
      4 C4         -8.2906    2.0928    0.0527 C.ar      1 <0>        -0.0248
      5 C5         -9.5685    1.5322    0.0553 C.ar      1 <0>        -0.0819
      6 C6         -9.7176    0.1589    0.0480 C.ar      1 <0>         0.0680
      7 F1        -10.9547   -0.3841    0.0505 F         1 <0>        -0.1327
      8 C7         -8.1240    3.5605    0.0600 C.2       1 <0>         0.0124
      9 C8         -8.7300    4.4614   -0.7742 C.2       1 <0>        -0.2130
     10 C9         -8.2336    5.7082   -0.3432 C.2       1 <0>        -0.0126
     11 N1         -7.4180    5.4635    0.6431 N.2       1 <0>        -0.3569
     12 O1         -7.3419    4.2811    0.8835 O.3       1 <0>         0.1259
     13 O2         -5.9188    1.7932    0.0399 O.3       1 <0>        -0.2754
     14 C10        -4.8202    0.8794    0.0297 C.3       1 <0>         0.0442
     15 C11        -3.5254    1.6506    0.0277 C.2       1 <0>         0.5292
     16 O3         -3.5419    2.8637    0.0344 O.2       1 <0>        -0.4631
     17 N2         -2.3492    0.9927    0.0186 N.am      1 <0>        -0.5940
     18 N3         -1.1456    1.7096    0.0168 N.2       1 <0>        -0.1829
     19 C12        -0.0126    1.0758    0.0080 C.2       1 <0>         0.1076
     20 C13         1.2532    1.8297   -0.0001 C.2       1 <0>        -0.2415
     21 C14         2.4511    1.1788   -0.0093 C.2       1 <0>         0.1604
     22 O4          3.6180    1.8253   -0.0232 O.3       1 <0>        -0.2136
     23 C15         3.7218    3.1690   -0.0166 C.ar      1 <0>         0.1537
     24 C16         4.9712    3.7807   -0.0253 C.ar      1 <0>        -0.1292
     25 C17         5.0660    5.1553   -0.0189 C.ar      1 <0>        -0.0313
     26 C18         3.9243    5.9451   -0.0038 C.ar      1 <0>        -0.1213
     27 C19         2.6764    5.3600    0.0047 C.ar      1 <0>        -0.0013
     28 C20         2.5684    3.9698   -0.0012 C.ar      1 <0>        -0.2092
     29 C21         1.2512    3.3044    0.0079 C.2       1 <0>         0.4187
     30 O5          0.2131    3.9421    0.0209 O.2       1 <0>        -0.4091
     31 Br1         4.0819    7.8295    0.0054 Br        1 <0>        -0.0288
     32 H1         -8.7260   -1.7367    0.0335 H         1 <0>         0.1470
     33 H2         -6.4677   -0.7651    0.0183 H         1 <0>         0.1467
     34 H3        -10.4394    2.1708    0.0632 H         1 <0>         0.1523
     35 H4         -9.4274    4.2631   -1.5746 H         1 <0>         0.1752
     36 H5         -8.4784    6.6770   -0.7531 H         1 <0>         0.1937
     37 H6         -4.8656    0.2414    0.9246 H         1 <0>         0.1044
     38 H7         -4.8742    0.2511   -0.8716 H         1 <0>         0.1033
     39 H8         -2.3343   -0.1072    0.0126 H         1 <0>         0.4016
     40 H9          0.0023   -0.0241    0.0066 H         1 <0>         0.1323
     41 H10         2.4554    0.0988   -0.0103 H         1 <0>         0.2107
     42 H11         5.8672    3.1779   -0.0368 H         1 <0>         0.1557
     43 H12         6.0392    5.6235   -0.0254 H         1 <0>         0.1523
     44 H13         1.7881    5.9742    0.0162 H         1 <0>         0.1537
@<TRIPOS>BOND
     1    1    6 ar
     2    1    2 ar
     3    1   32 1
     4    2    3 ar
     5    2   33 1
     6    3    4 ar
     7    3   13 1
     8    4    5 ar
     9    4    8 1
    10    5    6 ar
    11    5   34 1
    12    6    7 1
    13    8   12 1
    14    8    9 2
    15    9   10 1
    16    9   35 1
    17   10   11 2
    18   10   36 1
    19   11   12 1
    20   13   14 1
    21   14   15 1
    22   14   37 1
    23   14   38 1
    24   15   16 2
    25   15   17 am
    26   17   18 1
    27   17   39 1
    28   18   19 2
    29   19   20 1
    30   19   40 1
    31   20   29 1
    32   20   21 2
    33   21   22 1
    34   21   41 1
    35   22   23 1
    36   23   28 ar
    37   23   24 ar
    38   24   25 ar
    39   24   42 1
    40   25   26 ar
    41   25   43 1
    42   26   27 ar
    43   26   31 1
    44   27   28 ar
    45   27   44 1
    46   28   29 1
    47   29   30 2
