@<TRIPOS>MOLECULE
ZINC40060284
   36    38     0     0     0
SMALL
USER_CHARGES

@<TRIPOS>ATOM
      1 C1         -0.0165    1.3627    0.0095 C.ar      1 <0>        -0.0896
      2 C2          1.1654    2.0924    0.0022 C.ar      1 <0>        -0.1100
      3 C3          2.3861    1.4540   -0.0134 C.ar      1 <0>        -0.0557
      4 C4          2.4294    0.0605   -0.0213 C.ar      1 <0>        -0.1218
      5 C5          1.2244   -0.6786   -0.0133 C.ar      1 <0>        -0.0701
      6 C6          0.0021   -0.0041    0.0020 C.ar      1 <0>        -0.0925
      7 C7          1.3000   -2.1396   -0.0224 C.2       1 <0>         0.1237
      8 N1          2.4575   -2.7306   -0.0371 N.2       1 <0>        -0.2323
      9 N2          3.6626   -2.0276   -0.0452 N.am      1 <0>        -0.4192
     10 C8          3.6977   -0.6787   -0.0384 C.2       1 <0>         0.5370
     11 O1          4.7616   -0.0856   -0.0461 O.2       1 <0>        -0.5162
     12 C9          4.9232   -2.7737   -0.0618 C.3       1 <0>         0.1254
     13 C10         5.3696   -3.0372    1.3533 C.2       1 <0>         0.5034
     14 O2          4.7005   -2.6408    2.2840 O.2       1 <0>        -0.5197
     15 N3          6.5123   -3.7134    1.5846 N.am      1 <0>        -0.5190
     16 N4          6.9273   -3.9583    2.9001 N.am      1 <0>        -0.4994
     17 C11         8.0700   -4.6345    3.1315 C.2       1 <0>         0.5802
     18 O3          8.7403   -5.0316    2.1990 O.2       1 <0>        -0.5232
     19 C12         8.5088   -4.8935    4.5226 C.ar      1 <0>         0.0304
     20 C13         9.6936   -5.5878    4.7642 C.ar      1 <0>         0.1201
     21 N5         10.0809   -5.8159    6.0062 N.ar      1 <0>        -0.4359
     22 C14         9.3471   -5.3870    7.0179 C.ar      1 <0>         0.0828
     23 C15         8.1675   -4.6964    6.7809 C.ar      1 <0>         0.0550
     24 N6          7.7765   -4.4597    5.5446 N.ar      1 <0>        -0.4136
     25 H1         -0.9631    1.8823    0.0259 H         1 <0>         0.1361
     26 H2          1.1269    3.1717    0.0083 H         1 <0>         0.1371
     27 H3          3.3010    2.0277   -0.0197 H         1 <0>         0.1426
     28 H4         -0.9242   -0.5594    0.0075 H         1 <0>         0.1426
     29 H5          0.3939   -2.7272   -0.0166 H         1 <0>         0.2007
     30 H6          4.7775   -3.7219   -0.5793 H         1 <0>         0.1347
     31 H7          5.6841   -2.1901   -0.5800 H         1 <0>         0.1361
     32 H8          7.0474   -4.0304    0.8403 H         1 <0>         0.4353
     33 H9          6.3921   -3.6413    3.6445 H         1 <0>         0.4431
     34 H10        10.2934   -5.9387    3.9374 H         1 <0>         0.1868
     35 H11         9.6663   -5.5751    8.0324 H         1 <0>         0.1821
     36 H12         7.5706   -4.3484    7.6109 H         1 <0>         0.1830
@<TRIPOS>BOND
     1    1    6 ar
     2    1    2 ar
     3    1   25 1
     4    2    3 ar
     5    2   26 1
     6    3    4 ar
     7    3   27 1
     8    4   10 1
     9    4    5 ar
    10    5    6 ar
    11    5    7 1
    12    6   28 1
    13    7    8 2
    14    7   29 1
    15    8    9 1
    16    9   10 am
    17    9   12 1
    18   10   11 2
    19   12   13 1
    20   12   30 1
    21   12   31 1
    22   13   14 2
    23   13   15 am
    24   15   16 1
    25   15   32 1
    26   16   17 am
    27   16   33 1
    28   17   18 2
    29   17   19 1
    30   19   24 ar
    31   19   20 ar
    32   20   21 ar
    33   20   34 1
    34   21   22 ar
    35   22   23 ar
    36   22   35 1
    37   23   24 ar
    38   23   36 1
