@<TRIPOS>MOLECULE
ZINC58633478
   39    41     0     0     0
SMALL
USER_CHARGES

@<TRIPOS>ATOM
      1 C1          0.1075    1.4601   -0.0760 C.3       1 <0>        -0.1215
      2 C2          0.1143   -0.0469   -0.0709 C.ar      1 <0>        -0.0889
      3 C3          0.1209   -0.7401   -1.2677 C.ar      1 <0>        -0.0959
      4 C4          0.1276   -2.1202   -1.2692 C.ar      1 <0>        -0.0799
      5 C5          0.1277   -2.8168   -0.0623 C.ar      1 <0>        -0.0182
      6 C6          0.1210   -2.1158    1.1412 C.ar      1 <0>        -0.0959
      7 C7          0.1197   -0.7331    1.1323 C.ar      1 <0>         0.0934
      8 F1          0.1188   -0.0508    2.2983 F         1 <0>        -0.1297
      9 C8          0.1344   -4.3010   -0.0593 C.2       1 <0>         0.2982
     10 N1          0.1298   -5.0834    1.0348 N.2       1 <0>        -0.5204
     11 C9          0.1381   -6.3383    0.6858 C.2       1 <0>         0.2991
     12 O1          0.1484   -6.4069   -0.6517 O.3       1 <0>        -0.0768
     13 N2          0.1401   -5.0673   -1.1219 N.2       1 <0>        -0.3213
     14 C10         0.1372   -7.5144    1.6280 C.3       1 <0>         0.1724
     15 H1         -0.1372   -7.1786    2.6280 H         1 <0>         0.1382
     16 C11         1.5333   -8.1393    1.6650 C.3       1 <0>        -0.1719
     17 O2         -0.8078   -8.4863    1.1758 O.3       1 <0>        -0.3137
     18 C12        -1.3979   -9.2496    2.1163 C.2       1 <0>         0.5527
     19 O3         -1.1178   -9.0943    3.2882 O.2       1 <0>        -0.5041
     20 C13        -2.3847  -10.2744    1.7228 C.ar      1 <0>        -0.0542
     21 C14        -2.9146  -11.1506    2.6850 C.ar      1 <0>         0.4246
     22 N3         -3.8018  -12.0689    2.3196 N.ar      1 <0>        -0.5052
     23 C15        -4.1813  -12.1547    1.0578 C.ar      1 <0>         0.1586
     24 C16        -3.6572  -11.2892    0.1077 C.ar      1 <0>        -0.0191
     25 N4         -2.7809  -10.3696    0.4565 N.ar      1 <0>        -0.3438
     26 N5         -2.5142  -11.0577    4.0048 N.pl3     1 <0>        -0.8123
     27 H2          1.1335    1.8281   -0.0792 H         1 <0>         0.0814
     28 H3         -0.4096    1.8181   -0.9663 H         1 <0>         0.0781
     29 H4         -0.4063    1.8241    0.8137 H         1 <0>         0.0750
     30 H5          0.1205   -0.2003   -2.2031 H         1 <0>         0.1452
     31 H6          0.1324   -2.6597   -2.2047 H         1 <0>         0.1413
     32 H7          0.1211   -2.6510    2.0793 H         1 <0>         0.1523
     33 H8          1.8077   -8.4751    0.6650 H         1 <0>         0.0818
     34 H9          2.2541   -7.3980    2.0099 H         1 <0>         0.0906
     35 H10         1.5326   -8.9900    2.3465 H         1 <0>         0.0893
     36 H11        -4.9029  -12.9024    0.7634 H         1 <0>         0.1838
     37 H12        -3.9732  -11.3670   -0.9221 H         1 <0>         0.1809
     38 H13        -1.9264  -10.3382    4.2838 H         1 <0>         0.4273
     39 H14        -2.8209  -11.7119    4.6519 H         1 <0>         0.4085
@<TRIPOS>BOND
     1    1    2 1
     2    1   27 1
     3    1   28 1
     4    1   29 1
     5    2    7 ar
     6    2    3 ar
     7    3    4 ar
     8    3   30 1
     9    4    5 ar
    10    4   31 1
    11    5    6 ar
    12    5    9 1
    13    6    7 ar
    14    6   32 1
    15    7    8 1
    16    9   13 2
    17    9   10 1
    18   10   11 2
    19   11   12 1
    20   11   14 1
    21   12   13 1
    22   14   15 1
    23   14   16 1
    24   14   17 1
    25   16   33 1
    26   16   34 1
    27   16   35 1
    28   17   18 1
    29   18   19 2
    30   18   20 1
    31   20   25 ar
    32   20   21 ar
    33   21   22 ar
    34   21   26 1
    35   22   23 ar
    36   23   24 ar
    37   23   36 1
    38   24   25 ar
    39   24   37 1
    40   26   38 1
    41   26   39 1
