@<TRIPOS>MOLECULE
ZINC04280081
   53    53     0     0     0
SMALL
USER_CHARGES

@<TRIPOS>ATOM
      1 C1          0.0020    1.4763   -0.1865 C.3       1 <0>        -0.1888
      2 C2         -0.0496   -0.0438   -0.0209 C.3       1 <0>        -0.0188
      3 N1         -1.4331   -0.4609    0.2432 N.4       1 <0>        -0.3852
      4 C3         -2.2616   -0.1856   -0.9383 C.3       1 <0>        -0.0158
      5 C4         -3.7267   -0.4847   -0.6147 C.3       1 <0>        -0.1896
      6 C5         -1.4630   -1.8998    0.5378 C.3       1 <0>        -0.0093
      7 C6         -0.7035   -2.1700    1.8382 C.3       1 <0>        -0.1774
      8 C7         -0.7347   -3.6686    2.1450 C.3       1 <0>         0.0025
      9 N2         -0.0055   -3.9281    3.3935 N.4       1 <0>        -0.4854
     10 C8         -0.0353   -5.3670    3.6881 C.3       1 <0>        -0.0322
     11 H1         -1.0690   -5.7122    3.7087 H         1 <0>         0.1421
     12 C9          0.6149   -5.6225    5.0492 C.3       1 <0>        -0.1524
     13 C10        -0.2128   -4.9769    6.1305 C.2       1 <0>         0.5179
     14 O1         -1.2234   -4.3720    5.8409 O.2       1 <0>        -0.5434
     15 N3          0.1699   -5.0718    7.4193 N.am      1 <0>        -0.6571
     16 C11        -0.6529   -4.5672    8.4324 C.ar      1 <0>         0.1370
     17 C12        -2.0344   -4.6384    8.3071 C.ar      1 <0>        -0.0690
     18 C13        -2.8436   -4.1395    9.3087 C.ar      1 <0>        -0.0949
     19 C14        -2.2799   -3.5694   10.4356 C.ar      1 <0>        -0.0606
     20 C15        -0.9051   -3.4966   10.5631 C.ar      1 <0>        -0.0265
     21 C16        -0.0901   -3.9994    9.5676 C.ar      1 <0>        -0.0796
     22 N4         -0.3060   -2.8848   11.7704 N.pl3     1 <0>         0.0285
     23 O2         -1.0188   -2.4491   12.6444 O.2       1 <0>        -0.1434
     24 O3          0.8960   -2.8208   11.8826 O.3       1 <0>        -0.1509
     25 C17         0.7226   -6.1140    2.6211 C.2       1 <0>         0.4895
     26 O4          1.6556   -5.5780    2.0476 O.co2     1 <0>        -0.6637
     27 O5          0.4029   -7.2543    2.3313 O.co2     1 <0>        -0.6203
     28 H2          1.0390    1.7955   -0.2909 H         1 <0>         0.1086
     29 H3         -0.5581    1.7642   -1.0761 H         1 <0>         0.0829
     30 H4         -0.4381    1.9524    0.6898 H         1 <0>         0.0796
     31 H5          0.3057   -0.5210   -0.9342 H         1 <0>         0.1346
     32 H6          0.5850   -0.3401    0.8144 H         1 <0>         0.1298
     33 H7         -2.1580    0.8626   -1.2184 H         1 <0>         0.1357
     34 H8         -1.9360   -0.8166   -1.7653 H         1 <0>         0.1332
     35 H9         -4.3519   -0.1945   -1.4591 H         1 <0>         0.1092
     36 H10        -3.8463   -1.5511   -0.4236 H         1 <0>         0.0807
     37 H11        -4.0259    0.0786    0.2693 H         1 <0>         0.0799
     38 H12        -2.4970   -2.2270    0.6462 H         1 <0>         0.1421
     39 H13        -0.9922   -2.4476   -0.2785 H         1 <0>         0.1434
     40 H14         0.3305   -1.8427    1.7298 H         1 <0>         0.1090
     41 H15        -1.1743   -1.6222    2.6545 H         1 <0>         0.1045
     42 H16        -1.7687   -3.9959    2.2534 H         1 <0>         0.1334
     43 H17        -0.2639   -4.2165    1.3287 H         1 <0>         0.1479
     44 H18         0.9517   -3.6251    3.2932 H         1 <0>         0.4260
     45 H19         0.6730   -6.6961    5.2283 H         1 <0>         0.1496
     46 H20         1.6188   -5.1979    5.0578 H         1 <0>         0.1245
     47 H21         1.0157   -5.4899    7.6446 H         1 <0>         0.4259
     48 H22        -2.4751   -5.0832    7.4272 H         1 <0>         0.1523
     49 H23        -3.9178   -4.1943    9.2117 H         1 <0>         0.1559
     50 H24        -2.9150   -3.1800   11.2175 H         1 <0>         0.1604
     51 H25         0.9838   -3.9469    9.6702 H         1 <0>         0.1594
     52 H26        -1.7939    0.0518    1.0338 H         1 <0>         0.4223
     53 H27        -0.4413   -3.4210    4.1491 H         1 <0>         0.4160
@<TRIPOS>BOND
     1    1    2 1
     2    1   28 1
     3    1   29 1
     4    1   30 1
     5    2    3 1
     6    2   31 1
     7    2   32 1
     8    3    4 1
     9    3    6 1
    10    3   52 1
    11    4    5 1
    12    4   33 1
    13    4   34 1
    14    5   35 1
    15    5   36 1
    16    5   37 1
    17    6    7 1
    18    6   38 1
    19    6   39 1
    20    7    8 1
    21    7   40 1
    22    7   41 1
    23    8    9 1
    24    8   42 1
    25    8   43 1
    26    9   10 1
    27    9   44 1
    28    9   53 1
    29   10   11 1
    30   10   12 1
    31   10   25 1
    32   12   13 1
    33   12   45 1
    34   12   46 1
    35   13   14 2
    36   13   15 am
    37   15   16 1
    38   15   47 1
    39   16   21 ar
    40   16   17 ar
    41   17   18 ar
    42   17   48 1
    43   18   19 ar
    44   18   49 1
    45   19   20 ar
    46   19   50 1
    47   20   21 ar
    48   20   22 1
    49   21   51 1
    50   22   23 2
    51   22   24 1
    52   25   26 2
    53   25   27 1
