@<TRIPOS>MOLECULE
ZINC14117926
   56    60     0     0     0
SMALL
USER_CHARGES
2-[[5-[(3R)-2,3-dihydro-1,4-benzodioxin-3-yl]-1,3,4-oxadiazol-2-yl]sulfanyl]-N-(8-methyl-2,4-dioxo-1,3-diazaspiro[4.5]decan-3-yl)acetamide
@<TRIPOS>ATOM
      1 C1         -1.4335   -0.5332    0.0020 C.3       1 <0>        -0.1493
      2 C2          0.0021   -0.0041    0.0020 C.3       1 <0>        -0.0978
      3 C3         -0.0187    1.5258    0.0104 C.3       1 <0>        -0.1124
      4 C4          1.4181    2.0543   -0.0004 C.3       1 <0>        -0.1159
      5 C5          2.1622    1.5323    1.2237 C.3       1 <0>         0.1399
      6 C6          2.1724    0.0077    1.2396 C.3       1 <0>        -0.1169
      7 C7          0.7329   -0.5134    1.2459 C.3       1 <0>        -0.1121
      8 C8          3.5744    2.0700    1.2521 C.2       1 <0>         0.5334
      9 O1          4.4447    1.8906    0.4274 O.2       1 <0>        -0.4434
     10 N1          3.6625    2.7913    2.3889 N.am      1 <0>        -0.3771
     11 C9          2.5105    2.7798    3.0706 C.2       1 <0>         0.7071
     12 O2          2.3441    3.3583    4.1264 O.2       1 <0>        -0.5214
     13 N2          1.5565    2.0553    2.4551 N.am      1 <0>        -0.7055
     14 N3          4.8167    3.4680    2.8045 N.am      1 <0>        -0.4965
     15 C10         5.5651    2.9699    3.8086 C.2       1 <0>         0.5464
     16 O3          5.2394    1.9359    4.3524 O.2       1 <0>        -0.4943
     17 C11         6.8066    3.6979    4.2557 C.3       1 <0>        -0.1602
     18 S1          7.5862    2.7852    5.6105 S.3       1 <0>         0.1772
     19 C12         8.9700    3.8292    5.9263 C.2       1 <0>         0.1296
     20 N4          9.2650    4.9413    5.2970 N.2       1 <0>        -0.2880
     21 N5         10.3439    5.4372    5.7924 N.2       1 <0>        -0.2318
     22 C13        10.7770    4.6692    6.7487 C.2       1 <0>         0.1611
     23 O4          9.9182    3.6370    6.8626 O.3       1 <0>        -0.1921
     24 C14        12.0114    4.8964    7.5828 C.3       1 <0>         0.1593
     25 H1         11.9879    4.2476    8.4584 H         1 <0>         0.1215
     26 C15        13.2631    4.5946    6.7475 C.3       1 <0>         0.0368
     27 O5         14.4148    4.8328    7.5640 O.3       1 <0>        -0.2947
     28 C16        14.4274    5.9898    8.2807 C.ar      1 <0>         0.0460
     29 C17        15.6266    6.4571    8.7978 C.ar      1 <0>        -0.1091
     30 C18        15.6551    7.6288    9.5300 C.ar      1 <0>        -0.1107
     31 C19        14.4888    8.3379    9.7498 C.ar      1 <0>        -0.1115
     32 C20        13.2907    7.8780    9.2370 C.ar      1 <0>        -0.1066
     33 C21        13.2553    6.7037    8.4998 C.ar      1 <0>         0.0520
     34 O6         12.0686    6.2655    7.9977 O.3       1 <0>        -0.2893
     35 H2         -1.9539   -0.1719   -0.8850 H         1 <0>         0.0575
     36 H3         -1.4190   -1.6231   -0.0040 H         1 <0>         0.0576
     37 H4         -1.9504   -0.1816    0.8949 H         1 <0>         0.0557
     38 H5          0.5182   -0.3552   -0.8915 H         1 <0>         0.0778
     39 H6         -0.5456    1.8871   -0.8727 H         1 <0>         0.0785
     40 H7         -0.5286    1.8775    0.9073 H         1 <0>         0.0669
     41 H8          1.9232    1.7146   -0.9047 H         1 <0>         0.0942
     42 H9          1.4044    3.1440    0.0202 H         1 <0>         0.0782
     43 H10         2.6894   -0.3427    2.1329 H         1 <0>         0.0796
     44 H11         2.6884   -0.3613    0.3533 H         1 <0>         0.0935
     45 H12         0.2211   -0.1567    2.1398 H         1 <0>         0.0668
     46 H13         0.7409   -1.6034    1.2420 H         1 <0>         0.0785
     47 H14         0.6488    1.9084    2.7638 H         1 <0>         0.4451
     48 H15         5.0771    4.2950    2.3696 H         1 <0>         0.4335
     49 H16         7.5033    3.7745    3.4210 H         1 <0>         0.1445
     50 H17         6.5383    4.6973    4.5980 H         1 <0>         0.1448
     51 H18        13.2487    3.5529    6.4269 H         1 <0>         0.1317
     52 H19        13.2894    5.2479    5.8754 H         1 <0>         0.0934
     53 H20        16.5391    5.9050    8.6276 H         1 <0>         0.1384
     54 H21        16.5901    7.9913    9.9310 H         1 <0>         0.1360
     55 H22        14.5140    9.2527   10.3233 H         1 <0>         0.1362
     56 H23        12.3811    8.4342    9.4097 H         1 <0>         0.1377
@<TRIPOS>BOND
     1    1    2 1
     2    1   35 1
     3    1   36 1
     4    1   37 1
     5    2    7 1
     6    2    3 1
     7    2   38 1
     8    3    4 1
     9    3   39 1
    10    3   40 1
    11    4    5 1
    12    4   41 1
    13    4   42 1
    14    5   13 1
    15    5    6 1
    16    5    8 1
    17    6    7 1
    18    6   43 1
    19    6   44 1
    20    7   45 1
    21    7   46 1
    22    8    9 2
    23    8   10 am
    24   10   11 am
    25   10   14 1
    26   11   12 2
    27   11   13 am
    28   13   47 1
    29   14   15 am
    30   14   48 1
    31   15   16 2
    32   15   17 1
    33   17   18 1
    34   17   49 1
    35   17   50 1
    36   18   19 1
    37   19   23 1
    38   19   20 2
    39   20   21 1
    40   21   22 2
    41   22   23 1
    42   22   24 1
    43   24   25 1
    44   24   34 1
    45   24   26 1
    46   26   27 1
    47   26   51 1
    48   26   52 1
    49   27   28 1
    50   28   33 ar
    51   28   29 ar
    52   29   30 ar
    53   29   53 1
    54   30   31 ar
    55   30   54 1
    56   31   32 ar
    57   31   55 1
    58   32   33 ar
    59   32   56 1
    60   33   34 1
