@<TRIPOS>MOLECULE
ZINC35646811
   77    79     0     0     0
SMALL
USER_CHARGES

@<TRIPOS>ATOM
      1 C1         -1.1737    1.6006   -1.3940 C.3       1 <0>        -0.1576
      2 C2         -1.1045    0.0896   -1.1636 C.3       1 <0>         0.0617
      3 O1         -0.2131   -0.4969   -2.1141 O.3       1 <0>        -0.3244
      4 C3         -0.1165   -1.8428   -2.1140 C.2       1 <0>         0.5462
      5 O2         -0.8388   -2.5046   -1.3923 O.2       1 <0>        -0.5483
      6 C4          0.8246   -2.4844   -2.9530 C.2       1 <0>        -0.2204
      7 C5          1.0280   -3.8176   -2.8825 C.2       1 <0>         0.2000
      8 N1          1.9364   -4.4358   -3.6933 N.am      1 <0>        -0.5321
      9 C6          2.6813   -3.7916   -4.6005 C.2       1 <0>         0.7137
     10 O3          3.4645   -4.4286   -5.2776 O.2       1 <0>        -0.5415
     11 N2          2.5909   -2.4600   -4.7877 N.am      1 <0>        -0.6984
     12 C7          1.6340   -1.7001   -3.9657 C.3       1 <0>         0.2488
     13 H1          2.1925   -0.9335   -3.4285 H         1 <0>         0.1021
     14 C8          0.6703   -1.0029   -4.8912 C.ar      1 <0>        -0.1946
     15 C9          0.4702    0.3600   -4.7803 C.ar      1 <0>        -0.0022
     16 C10        -0.4126    1.0020   -5.6272 C.ar      1 <0>        -0.2415
     17 C11        -1.1007    0.2792   -6.5917 C.ar      1 <0>         0.1847
     18 C12        -0.9017   -1.0879   -6.7049 C.ar      1 <0>        -0.2476
     19 C13        -0.0110   -1.7290   -5.8575 C.ar      1 <0>         0.1830
     20 O4          0.1908   -3.0682   -5.9699 O.3       1 <0>        -0.3175
     21 C14        -0.4607   -3.7337   -7.0538 C.3       1 <0>         0.0184
     22 O5         -1.9693    0.9112   -7.4242 O.3       1 <0>        -0.3129
     23 C15        -2.1251    2.3210   -7.2504 C.3       1 <0>         0.0242
     24 C16         2.1058   -5.8851   -3.5630 C.3       1 <0>         0.0515
     25 C17         0.2400   -4.6363   -1.8926 C.3       1 <0>         0.0045
     26 N3         -1.0809   -4.9467   -2.4553 N.4       1 <0>        -0.3502
     27 C18        -1.9068   -5.5281   -1.3994 C.3       1 <0>        -0.0001
     28 C19        -3.3597   -5.2013   -1.6649 C.3       1 <0>        -0.1538
     29 C20        -4.0074   -6.3521   -2.4563 C.3       1 <0>         0.1156
     30 N4         -3.0832   -6.8778   -3.4814 N.am      1 <0>        -0.6375
     31 C21        -2.2545   -6.0122   -4.2950 C.3       1 <0>         0.0979
     32 C22        -0.9001   -5.7682   -3.5902 C.3       1 <0>        -0.0701
     33 C23        -3.0079   -8.2107   -3.6661 C.2       1 <0>         0.6996
     34 O6         -3.7602   -8.9514   -3.0630 O.2       1 <0>        -0.5591
     35 N5         -2.0987   -8.7225   -4.5192 N.am      1 <0>        -0.7393
     36 C24        -1.9426  -10.1743   -4.6390 C.3       1 <0>         0.1489
     37 C25        -1.3700  -10.5136   -6.0166 C.3       1 <0>        -0.1641
     38 C26        -0.9891  -10.6760   -3.5527 C.3       1 <0>        -0.1644
     39 H2         -0.1996    2.0444   -1.1882 H         1 <0>         0.0708
     40 H3         -1.4514    1.7979   -2.4293 H         1 <0>         0.0694
     41 H4         -1.9192    2.0358   -0.7285 H         1 <0>         0.0858
     42 H5         -0.7414   -0.1079   -0.1550 H         1 <0>         0.0749
     43 H6         -2.0983   -0.3420   -1.2830 H         1 <0>         0.0728
     44 H7          3.1405   -2.0133   -5.4504 H         1 <0>         0.4390
     45 H8          1.0045    0.9241   -4.0302 H         1 <0>         0.1393
     46 H9         -0.5675    2.0671   -5.5384 H         1 <0>         0.1361
     47 H10        -1.4363   -1.6521   -7.4548 H         1 <0>         0.1383
     48 H11        -0.2844   -4.8068   -6.9799 H         1 <0>         0.0975
     49 H12        -1.5320   -3.5375   -7.0094 H         1 <0>         0.0600
     50 H13        -0.0626   -3.3643   -7.9989 H         1 <0>         0.0664
     51 H14        -2.4848    2.5252   -6.2420 H         1 <0>         0.0602
     52 H15        -1.1645    2.8139   -7.4003 H         1 <0>         0.0619
     53 H16        -2.8448    2.6992   -7.9764 H         1 <0>         0.1068
     54 H17         1.3858   -6.3941   -4.2038 H         1 <0>         0.0775
     55 H18         3.1170   -6.1611   -3.8620 H         1 <0>         0.1169
     56 H19         1.9405   -6.1785   -2.5263 H         1 <0>         0.0863
     57 H20         0.7726   -5.5639   -1.6828 H         1 <0>         0.1472
     58 H21         0.1177   -4.0706   -0.9690 H         1 <0>         0.1837
     59 H22        -1.7735   -6.6098   -1.3871 H         1 <0>         0.1314
     60 H23        -1.6107   -5.1134   -0.4359 H         1 <0>         0.1425
     61 H24        -3.8824   -5.0728   -0.7171 H         1 <0>         0.1292
     62 H25        -3.4251   -4.2801   -2.2439 H         1 <0>         0.0877
     63 H26        -4.2723   -7.1548   -1.7681 H         1 <0>         0.1116
     64 H27        -4.9115   -5.9868   -2.9434 H         1 <0>         0.0852
     65 H28        -2.0794   -6.4829   -5.2624 H         1 <0>         0.1174
     66 H29        -2.7623   -5.0593   -4.4435 H         1 <0>         0.1047
     67 H30        -0.2149   -5.2805   -4.2835 H         1 <0>         0.1414
     68 H31        -0.4771   -6.7238   -3.2804 H         1 <0>         0.1350
     69 H32        -1.5478   -8.1297   -5.0539 H         1 <0>         0.3906
     70 H33        -2.9136  -10.6551   -4.5206 H         1 <0>         0.0948
     71 H34        -0.3990  -10.0328   -6.1350 H         1 <0>         0.0607
     72 H35        -1.2538  -11.5938   -6.1058 H         1 <0>         0.0809
     73 H36        -2.0493  -10.1562   -6.7905 H         1 <0>         0.0637
     74 H37        -1.3970  -10.4342   -2.5712 H         1 <0>         0.0588
     75 H38        -0.8729  -11.7561   -3.6418 H         1 <0>         0.0736
     76 H39        -0.0181  -10.1951   -3.6711 H         1 <0>         0.0548
     77 H40        -1.5097   -4.0831   -2.7526 H         1 <0>         0.4220
@<TRIPOS>BOND
     1    1    2 1
     2    1   39 1
     3    1   40 1
     4    1   41 1
     5    2    3 1
     6    2   42 1
     7    2   43 1
     8    3    4 1
     9    4    5 2
    10    4    6 1
    11    6   12 1
    12    6    7 2
    13    7    8 1
    14    7   25 1
    15    8    9 am
    16    8   24 1
    17    9   10 2
    18    9   11 am
    19   11   12 1
    20   11   44 1
    21   12   13 1
    22   12   14 1
    23   14   19 ar
    24   14   15 ar
    25   15   16 ar
    26   15   45 1
    27   16   17 ar
    28   16   46 1
    29   17   18 ar
    30   17   22 1
    31   18   19 ar
    32   18   47 1
    33   19   20 1
    34   20   21 1
    35   21   48 1
    36   21   49 1
    37   21   50 1
    38   22   23 1
    39   23   51 1
    40   23   52 1
    41   23   53 1
    42   24   54 1
    43   24   55 1
    44   24   56 1
    45   25   26 1
    46   25   57 1
    47   25   58 1
    48   26   32 1
    49   26   27 1
    50   26   77 1
    51   27   28 1
    52   27   59 1
    53   27   60 1
    54   28   29 1
    55   28   61 1
    56   28   62 1
    57   29   30 1
    58   29   63 1
    59   29   64 1
    60   30   31 1
    61   30   33 am
    62   31   32 1
    63   31   65 1
    64   31   66 1
    65   32   67 1
    66   32   68 1
    67   33   34 2
    68   33   35 am
    69   35   36 1
    70   35   69 1
    71   36   37 1
    72   36   38 1
    73   36   70 1
    74   37   71 1
    75   37   72 1
    76   37   73 1
    77   38   74 1
    78   38   75 1
    79   38   76 1
