@<TRIPOS>MOLECULE
ZINC10040816
   60    62     0     0     0
SMALL
USER_CHARGES
4-methyl-N-[2-methyl-1-[[5-(1-piperidyl)-2-furyl]methyleneaminocarbamoyl]propyl]-benzamide
@<TRIPOS>ATOM
      1 C1          2.5403    5.6921   -1.6307 C.3       1 <0>        -0.1220
      2 C2          1.7317    4.4869   -1.2247 C.ar      1 <0>        -0.0557
      3 C3          0.3829    4.6238   -0.9485 C.ar      1 <0>        -0.1303
      4 C4         -0.3630    3.5246   -0.5759 C.ar      1 <0>        -0.0522
      5 C5          0.2459    2.2725   -0.4783 C.ar      1 <0>        -0.1454
      6 C6          1.6081    2.1423   -0.7536 C.ar      1 <0>        -0.0797
      7 C7          2.3413    3.2485   -1.1302 C.ar      1 <0>        -0.1284
      8 C8         -0.5472    1.0904   -0.0790 C.2       1 <0>         0.5674
      9 O1         -1.7332    1.2068    0.1601 O.2       1 <0>        -0.5290
     10 N1          0.0438   -0.1173    0.0144 N.am      1 <0>        -0.7121
     11 C9         -0.7421   -1.2887    0.4100 C.3       1 <0>         0.1416
     12 H1         -1.7509   -1.2027    0.0062 H         1 <0>         0.1108
     13 C10        -0.8087   -1.3663    1.9365 C.3       1 <0>        -0.0990
     14 C11        -1.3610   -0.0514    2.4904 C.3       1 <0>        -0.1382
     15 C12        -1.7263   -2.5190    2.3491 C.3       1 <0>        -0.1584
     16 C13        -0.0902   -2.5362   -0.1285 C.2       1 <0>         0.5293
     17 O2          1.0857   -2.5255   -0.4276 O.2       1 <0>        -0.4986
     18 N2         -0.8133   -3.6637   -0.2778 N.am      1 <0>        -0.5717
     19 N3         -0.1835   -4.8536   -0.6652 N.2       1 <0>        -0.2286
     20 C14        -0.8944   -5.9177   -0.9077 C.2       1 <0>         0.1596
     21 C15        -2.3548   -5.8487   -0.8577 C.2       1 <0>        -0.0769
     22 C16        -3.2115   -6.9063   -0.9761 C.2       1 <0>        -0.1106
     23 C17        -4.5126   -6.3894   -0.8694 C.2       1 <0>        -0.2408
     24 C18        -4.3949   -5.0466   -0.6915 C.2       1 <0>         0.2105
     25 O3         -3.0896   -4.7289   -0.6805 O.3       1 <0>        -0.2016
     26 N4         -5.4462   -4.1549   -0.5417 N.pl3     1 <0>        -0.4369
     27 C19        -6.5074   -4.4232   -1.5206 C.3       1 <0>         0.0553
     28 C20        -7.7084   -3.5193   -1.2335 C.3       1 <0>        -0.1189
     29 C21        -7.2701   -2.0545   -1.3165 C.3       1 <0>        -0.1269
     30 C22        -6.1316   -1.8135   -0.3215 C.3       1 <0>        -0.1190
     31 C23        -4.9762   -2.7668   -0.6350 C.3       1 <0>         0.0450
     32 H2          2.9560    6.1669   -0.7419 H         1 <0>         0.0765
     33 H3          3.3512    5.3806   -2.2891 H         1 <0>         0.0706
     34 H4          1.8987    6.4005   -2.1546 H         1 <0>         0.0707
     35 H5         -0.0870    5.5932   -1.0245 H         1 <0>         0.1309
     36 H6         -1.4158    3.6328   -0.3606 H         1 <0>         0.1372
     37 H7          2.0861    1.1770   -0.6755 H         1 <0>         0.1273
     38 H8          3.3945    3.1484   -1.3475 H         1 <0>         0.1303
     39 H9          0.9894   -0.2110   -0.1804 H         1 <0>         0.4110
     40 H10         0.1911   -1.5372    2.3356 H         1 <0>         0.0812
     41 H11        -2.3609    0.1195    2.0914 H         1 <0>         0.0707
     42 H12        -1.4085   -0.1067    3.5780 H         1 <0>         0.0564
     43 H13        -0.7073    0.7698    2.1966 H         1 <0>         0.0547
     44 H14        -1.4029   -3.4354    1.8555 H         1 <0>         0.0551
     45 H15        -1.6789   -2.6522    3.4299 H         1 <0>         0.0707
     46 H16        -2.7510   -2.2905    2.0558 H         1 <0>         0.0622
     47 H17        -1.7698   -3.6513   -0.1170 H         1 <0>         0.3953
     48 H18        -0.4057   -6.8509   -1.1457 H         1 <0>         0.2125
     49 H19        -2.9400   -7.9412   -1.1232 H         1 <0>         0.1629
     50 H20        -5.4330   -6.9522   -0.9189 H         1 <0>         0.1574
     51 H21        -6.1340   -4.2230   -2.5250 H         1 <0>         0.0524
     52 H22        -6.8128   -5.4670   -1.4482 H         1 <0>         0.0914
     53 H23        -8.0909   -3.7286   -0.2345 H         1 <0>         0.0777
     54 H24        -8.4898   -3.7076   -1.9698 H         1 <0>         0.0795
     55 H25        -8.1122   -1.4078   -1.0702 H         1 <0>         0.0733
     56 H26        -6.9240   -1.8346   -2.3264 H         1 <0>         0.0629
     57 H27        -6.4892   -1.9960    0.6919 H         1 <0>         0.0772
     58 H28        -5.7863   -0.7831   -0.4061 H         1 <0>         0.0795
     59 H29        -4.1696   -2.6076    0.0806 H         1 <0>         0.0822
     60 H30        -4.6101   -2.5744   -1.6435 H         1 <0>         0.0516
@<TRIPOS>BOND
     1    1    2 1
     2    1   32 1
     3    1   33 1
     4    1   34 1
     5    2    7 ar
     6    2    3 ar
     7    3    4 ar
     8    3   35 1
     9    4    5 ar
    10    4   36 1
    11    5    6 ar
    12    5    8 1
    13    6    7 ar
    14    6   37 1
    15    7   38 1
    16    8    9 2
    17    8   10 am
    18   10   11 1
    19   10   39 1
    20   11   12 1
    21   11   13 1
    22   11   16 1
    23   13   14 1
    24   13   15 1
    25   13   40 1
    26   14   41 1
    27   14   42 1
    28   14   43 1
    29   15   44 1
    30   15   45 1
    31   15   46 1
    32   16   17 2
    33   16   18 am
    34   18   19 1
    35   18   47 1
    36   19   20 2
    37   20   21 1
    38   20   48 1
    39   21   25 1
    40   21   22 2
    41   22   23 1
    42   22   49 1
    43   23   24 2
    44   23   50 1
    45   24   25 1
    46   24   26 1
    47   26   31 1
    48   26   27 1
    49   27   28 1
    50   27   51 1
    51   27   52 1
    52   28   29 1
    53   28   53 1
    54   28   54 1
    55   29   30 1
    56   29   55 1
    57   29   56 1
    58   30   31 1
    59   30   57 1
    60   30   58 1
    61   31   59 1
    62   31   60 1
