@<TRIPOS>MOLECULE
ZINC13915519
   47    49     0     0     0
SMALL
USER_CHARGES
ethyl 2-[2-iodo-6-methoxy-4-[(E)-[(Z)-(2-oxoindolin-3-ylidene)hydrazono]methyl]phenoxy]acetate
@<TRIPOS>ATOM
      1 C1         -9.3698    6.3254    3.2780 C.3       1 <0>        -0.1536
      2 C2         -8.7090    5.9571    1.9481 C.3       1 <0>         0.0638
      3 O1         -7.4636    5.2560    2.2042 O.3       1 <0>        -0.3560
      4 C3         -6.7557    4.8606    1.1345 C.2       1 <0>         0.4670
      5 O2         -7.1633    5.0926    0.0210 O.2       1 <0>        -0.4775
      6 C4         -5.4527    4.1272    1.3223 C.3       1 <0>         0.0724
      7 O3         -4.8930    3.8157    0.0449 O.3       1 <0>        -0.2915
      8 C5         -3.7099    3.1502    0.0362 C.ar      1 <0>         0.1188
      9 C6         -3.6970    1.7542    0.0291 C.ar      1 <0>         0.1164
     10 C7         -2.4971    1.0746    0.0197 C.ar      1 <0>        -0.1421
     11 C8         -1.2898    1.7903    0.0179 C.ar      1 <0>        -0.0420
     12 C9         -1.3117    3.1928    0.0314 C.ar      1 <0>        -0.0504
     13 C10        -2.5153    3.8613    0.0339 C.ar      1 <0>        -0.0979
     14 I1         -2.5467    5.9561    0.0440 I         1 <0>        -0.0017
     15 C11        -0.0126    1.0758    0.0080 C.2       1 <0>         0.2283
     16 N1          1.1187    1.7497    0.0008 N.2       1 <0>        -0.3635
     17 N2          2.2445    1.1199   -0.0134 N.2       1 <0>        -0.2720
     18 C12         3.3780    1.7951   -0.0206 C.2       1 <0>         0.1736
     19 C13         4.7510    1.2479   -0.0306 C.ar      1 <0>        -0.1256
     20 C14         5.2612   -0.0474   -0.0495 C.ar      1 <0>        -0.0254
     21 C15         6.6270   -0.2445   -0.0645 C.ar      1 <0>        -0.1492
     22 C16         7.4856    0.8425   -0.0662 C.ar      1 <0>        -0.0579
     23 C17         6.9899    2.1309   -0.0539 C.ar      1 <0>        -0.1440
     24 C18         5.6173    2.3507   -0.0393 C.ar      1 <0>         0.1738
     25 N3          4.8690    3.5222   -0.0252 N.am      1 <0>        -0.6568
     26 C19         3.5506    3.2615   -0.0138 C.2       1 <0>         0.5289
     27 O4          2.6573    4.0877   -0.0010 O.2       1 <0>        -0.4563
     28 O5         -4.8688    1.0640    0.0309 O.3       1 <0>        -0.2995
     29 C20        -4.7815   -0.3623    0.0228 C.3       1 <0>         0.0202
     30 H1         -8.7014    6.9691    3.8498 H         1 <0>         0.0681
     31 H2        -10.3047    6.8517    3.0857 H         1 <0>         0.0828
     32 H3         -9.5740    5.4177    3.8459 H         1 <0>         0.0679
     33 H4         -8.5048    6.8648    1.3802 H         1 <0>         0.0733
     34 H5         -9.3774    5.3134    1.3763 H         1 <0>         0.0731
     35 H6         -5.6312    3.2051    1.8755 H         1 <0>         0.1033
     36 H7         -4.7586    4.7565    1.8794 H         1 <0>         0.0978
     37 H8         -2.4864   -0.0053    0.0135 H         1 <0>         0.1513
     38 H9         -0.3852    3.7478    0.0349 H         1 <0>         0.1581
     39 H10         0.0021   -0.0041    0.0020 H         1 <0>         0.1274
     40 H11         4.5910   -0.8943   -0.0475 H         1 <0>         0.1368
     41 H12         7.0270   -1.2476   -0.0745 H         1 <0>         0.1363
     42 H13         8.5533    0.6804   -0.0776 H         1 <0>         0.1375
     43 H14         7.6700    2.9699   -0.0554 H         1 <0>         0.1350
     44 H15         5.2499    4.4143   -0.0243 H         1 <0>         0.4223
     45 H16        -5.7851   -0.7877    0.0252 H         1 <0>         0.1073
     46 H17        -4.2507   -0.6888   -0.8715 H         1 <0>         0.0612
     47 H18        -4.2423   -0.6984    0.9084 H         1 <0>         0.0604
@<TRIPOS>BOND
     1    1    2 1
     2    1   30 1
     3    1   31 1
     4    1   32 1
     5    2    3 1
     6    2   33 1
     7    2   34 1
     8    3    4 1
     9    4    5 2
    10    4    6 1
    11    6    7 1
    12    6   35 1
    13    6   36 1
    14    7    8 1
    15    8   13 ar
    16    8    9 ar
    17    9   10 ar
    18    9   28 1
    19   10   11 ar
    20   10   37 1
    21   11   12 ar
    22   11   15 1
    23   12   13 ar
    24   12   38 1
    25   13   14 1
    26   15   16 2
    27   15   39 1
    28   16   17 1
    29   17   18 2
    30   18   26 1
    31   18   19 1
    32   19   24 ar
    33   19   20 ar
    34   20   21 ar
    35   20   40 1
    36   21   22 ar
    37   21   41 1
    38   22   23 ar
    39   22   42 1
    40   23   24 ar
    41   23   43 1
    42   24   25 1
    43   25   26 am
    44   25   44 1
    45   26   27 2
    46   28   29 1
    47   29   45 1
    48   29   46 1
    49   29   47 1
