@<TRIPOS>MOLECULE
ZINC06193531
   71    75     0     0     0
SMALL
USER_CHARGES
3-[(S)-(1-tert-butyltetrazol-5-yl)-[4-(4-nitrophenyl)piperazin-1-yl]methyl]-5,7-dimethyl-1H-quinolin-2-one
@<TRIPOS>ATOM
      1 C1         -1.6666    0.0030    0.7487 C.3       1 <0>        -0.1335
      2 C2         -0.3235    0.6698    0.5984 C.ar      1 <0>         0.0126
      3 C3          0.8322   -0.0990    0.6273 C.ar      1 <0>        -0.1483
      4 C4          2.0594    0.4857    0.4938 C.ar      1 <0>         0.0011
      5 C5          2.1529    1.8712    0.3260 C.ar      1 <0>        -0.1658
      6 C6          3.4520    2.5303    0.1794 C.2       1 <0>         0.0744
      7 C7          3.4810    3.8764    0.0187 C.2       1 <0>        -0.2894
      8 C8          2.2788    4.6154   -0.0043 C.2       1 <0>         0.5459
      9 O1          2.3275    5.8246   -0.1495 O.2       1 <0>        -0.5230
     10 N1          1.0812    4.0190    0.1295 N.am      1 <0>        -0.6149
     11 H1          0.2744    4.5571    0.1091 H         1 <0>         0.4288
     12 C9          0.9835    2.6540    0.2956 C.ar      1 <0>         0.2136
     13 C10        -0.2554    2.0363    0.4341 C.ar      1 <0>        -0.1781
     14 C11         4.8016    4.5860   -0.1344 C.3       1 <0>         0.2101
     15 H2          5.6150    3.8760    0.0151 H         1 <0>         0.1637
     16 C12         4.8975    5.1758   -1.5179 C.2       1 <0>         0.1105
     17 N2          4.1870    6.1676   -1.9967 N.2       1 <0>        -0.2431
     18 N3          4.5645    6.3779   -3.2106 N.2       1 <0>        -0.0586
     19 N4          5.4918    5.5406   -3.5210 N.2       1 <0>        -0.0510
     20 N5          5.7254    4.7824   -2.5036 N.pl3     1 <0>        -0.2718
     21 C13         6.7074    3.6975   -2.4340 C.3       1 <0>         0.1509
     22 C14         5.9976    2.3889   -2.0811 C.3       1 <0>        -0.1734
     23 C15         7.4026    3.5513   -3.7891 C.3       1 <0>        -0.1560
     24 C16         7.7477    4.0194   -1.3593 C.3       1 <0>        -0.1702
     25 C17         6.1070    6.4690    0.6498 C.3       1 <0>        -0.0030
     26 C18         6.1305    7.6212    1.6570 C.3       1 <0>         0.0293
     27 N6          6.0996    7.0764    3.0215 N.pl3     1 <0>        -0.4851
     28 C19         4.8917    6.2670    3.2351 C.3       1 <0>         0.0178
     29 C20         4.8683    5.1148    2.2280 C.3       1 <0>         0.0014
     30 C21         6.1924    8.0972    3.9702 C.ar      1 <0>         0.1440
     31 C22         5.2080    8.2376    4.9402 C.ar      1 <0>        -0.1648
     32 C23         5.3058    9.2445    5.8804 C.ar      1 <0>        -0.0226
     33 C24         6.3762   10.1195    5.8499 C.ar      1 <0>        -0.0547
     34 C25         7.3549    9.9861    4.8821 C.ar      1 <0>        -0.0251
     35 C26         7.2663    8.9779    3.9425 C.ar      1 <0>        -0.1300
     36 N7          6.4747   11.2009    6.8556 N.pl3     1 <0>         0.0231
     37 O2          7.4172   11.9721    6.8302 O.2       1 <0>        -0.1494
     38 O3          5.6134   11.3196    7.7085 O.3       1 <0>        -0.1510
     39 C27         3.3075   -0.3583    0.5278 C.3       1 <0>        -0.1308
     40 H3         -2.0449   -0.2776   -0.2343 H         1 <0>         0.0886
     41 H4         -1.5622   -0.8892    1.3660 H         1 <0>         0.0816
     42 H5         -2.3640    0.6934    1.2229 H         1 <0>         0.0790
     43 H6          0.7603   -1.1688    0.7569 H         1 <0>         0.1420
     44 H7          4.3671    1.9569    0.1989 H         1 <0>         0.1578
     45 H8         -1.1605    2.6250    0.4085 H         1 <0>         0.1440
     46 H9          5.2565    2.1596   -2.8468 H         1 <0>         0.0828
     47 H10         6.7283    1.5817   -2.0294 H         1 <0>         0.1096
     48 H11         5.5023    2.4931   -1.1157 H         1 <0>         0.0555
     49 H12         7.9083    4.4836   -4.0405 H         1 <0>         0.0818
     50 H13         8.1333    2.7441   -3.7374 H         1 <0>         0.0956
     51 H14         6.6615    3.3220   -4.5548 H         1 <0>         0.0801
     52 H15         7.2690    4.0238   -0.3800 H         1 <0>         0.0550
     53 H16         8.5333    3.2640   -1.3762 H         1 <0>         0.1109
     54 H17         8.1819    4.9997   -1.5559 H         1 <0>         0.0820
     55 H18         6.9911    5.8466    0.7886 H         1 <0>         0.1433
     56 H19         6.1006    6.8715   -0.3631 H         1 <0>         0.1309
     57 H20         5.2606    8.2590    1.5003 H         1 <0>         0.0817
     58 H21         7.0400    8.2060    1.5194 H         1 <0>         0.1364
     59 H22         4.0077    6.8894    3.0963 H         1 <0>         0.0812
     60 H23         4.8981    5.8646    4.2480 H         1 <0>         0.1389
     61 H24         3.9587    4.5301    2.3655 H         1 <0>         0.1389
     62 H25         5.7382    4.4771    2.3847 H         1 <0>         0.1459
     63 H26         4.3694    7.5573    4.9619 H         1 <0>         0.1511
     64 H27         4.5433    9.3513    6.6377 H         1 <0>         0.1610
     65 H28         8.1894   10.6714    4.8609 H         1 <0>         0.1629
     66 H29         8.0312    8.8740    3.1872 H         1 <0>         0.1526
     67 H30         3.5548   -0.6820   -0.4833 H         1 <0>         0.0872
     68 H31         4.1318    0.2282    0.9333 H         1 <0>         0.0700
     69 H32         3.1385   -1.2316    1.1578 H         1 <0>         0.0869
     70 N8          4.8773    5.6768    0.8608 N.4       1 <0>        -0.3946
     71 H33         4.0616    6.2898    0.7465 H         1 <0>         0.4454
@<TRIPOS>BOND
     1    1    2 1
     2    1   40 1
     3    1   41 1
     4    1   42 1
     5    2   13 ar
     6    2    3 ar
     7    3    4 ar
     8    3   43 1
     9    4    5 ar
    10    4   39 1
    11    5   12 ar
    12    5    6 1
    13    6    7 2
    14    6   44 1
    15    7    8 1
    16    7   14 1
    17    8    9 2
    18    8   10 am
    19   10   11 1
    20   10   12 1
    21   12   13 ar
    22   13   45 1
    23   14   15 1
    24   14   16 1
    25   14   70 1
    26   16   20 1
    27   16   17 2
    28   17   18 1
    29   18   19 2
    30   19   20 1
    31   20   21 1
    32   21   22 1
    33   21   23 1
    34   21   24 1
    35   22   46 1
    36   22   47 1
    37   22   48 1
    38   23   49 1
    39   23   50 1
    40   23   51 1
    41   24   52 1
    42   24   53 1
    43   24   54 1
    44   25   26 1
    45   25   55 1
    46   25   56 1
    47   25   70 1
    48   26   27 1
    49   26   57 1
    50   26   58 1
    51   27   28 1
    52   27   30 1
    53   28   29 1
    54   28   59 1
    55   28   60 1
    56   29   61 1
    57   29   62 1
    58   29   70 1
    59   30   35 ar
    60   30   31 ar
    61   31   32 ar
    62   31   63 1
    63   32   33 ar
    64   32   64 1
    65   33   34 ar
    66   33   36 1
    67   34   35 ar
    68   34   65 1
    69   35   66 1
    70   36   37 2
    71   36   38 1
    72   39   67 1
    73   39   68 1
    74   39   69 1
    75   70   71 1
