@<TRIPOS>MOLECULE
ZINC66510955
   44    46     0     0     0
SMALL
USER_CHARGES

@<TRIPOS>ATOM
      1 C1          2.4854   -0.9584   -1.4618 C.3       1 <0>        -0.1348
      2 C2          1.2029   -1.1826   -0.7029 C.ar      1 <0>        -0.0235
      3 C3          0.0107   -0.6882   -1.1997 C.ar      1 <0>        -0.1041
      4 C4         -1.1675   -0.8926   -0.5061 C.ar      1 <0>        -0.0626
      5 C5         -1.1566   -1.5912    0.6859 C.ar      1 <0>        -0.1166
      6 C6          0.0378   -2.0880    1.1863 C.ar      1 <0>         0.1358
      7 C7          1.2183   -1.8865    0.4854 C.ar      1 <0>        -0.0372
      8 N1          2.4937   -2.4206    1.0134 N.pl3     1 <0>         0.0235
      9 O1          3.1701   -1.7470    1.7553 O.2       1 <0>        -0.1282
     10 O2          2.8590   -3.5304    0.7029 O.3       1 <0>        -0.1303
     11 O3          0.0512   -2.7756    2.3587 O.3       1 <0>        -0.2962
     12 C8         -0.0342   -4.1144    2.3053 C.2       1 <0>         0.4712
     13 O4         -0.0298   -4.6779    1.2364 O.2       1 <0>        -0.4597
     14 C9         -0.1355   -4.9144    3.5784 C.3       1 <0>         0.0063
     15 C10        -1.3974   -4.5030    4.3431 C.3       1 <0>        -0.1460
     16 C11        -2.6290   -4.8387    3.4979 C.3       1 <0>         0.0563
     17 O5         -2.6301   -6.2349    3.1936 O.3       1 <0>        -0.3750
     18 C12        -1.4970   -6.6683    2.4383 C.3       1 <0>         0.0469
     19 C13        -0.2199   -6.4061    3.2409 C.3       1 <0>        -0.1411
     20 C14         1.0795   -4.6587    4.4325 C.ar      1 <0>        -0.1086
     21 C15         1.9142   -5.7055    4.7770 C.ar      1 <0>        -0.0747
     22 C16         3.0290   -5.4722    5.5598 C.ar      1 <0>        -0.1502
     23 C17         3.3097   -4.1895    5.9990 C.ar      1 <0>         0.1121
     24 C18         2.4729   -3.1419    5.6533 C.ar      1 <0>        -0.1458
     25 C19         1.3616   -3.3767    4.8660 C.ar      1 <0>        -0.0724
     26 F1          4.3989   -3.9603    6.7646 F         1 <0>        -0.1348
     27 H1          2.6420   -1.7796   -2.1613 H         1 <0>         0.0929
     28 H2          2.4227   -0.0195   -2.0119 H         1 <0>         0.0935
     29 H3          3.3192   -0.9140   -0.7611 H         1 <0>         0.0714
     30 H4          0.0002   -0.1413   -2.1309 H         1 <0>         0.1544
     31 H5         -2.0973   -0.5055   -0.8962 H         1 <0>         0.1539
     32 H6         -2.0773   -1.7499    1.2277 H         1 <0>         0.1533
     33 H7         -1.4445   -5.0458    5.2871 H         1 <0>         0.1008
     34 H8         -1.3713   -3.4311    4.5391 H         1 <0>         0.0908
     35 H9         -3.5316   -4.5873    4.0549 H         1 <0>         0.1079
     36 H10        -2.6016   -4.2648    2.5717 H         1 <0>         0.0432
     37 H11        -1.5841   -7.7351    2.2320 H         1 <0>         0.1046
     38 H12        -1.4548   -6.1183    1.4982 H         1 <0>         0.0709
     39 H13         0.6483   -6.6953    2.6487 H         1 <0>         0.0929
     40 H14        -0.2432   -6.9874    4.1627 H         1 <0>         0.0991
     41 H15         1.6949   -6.7060    4.4346 H         1 <0>         0.1411
     42 H16         3.6808   -6.2901    5.8291 H         1 <0>         0.1416
     43 H17         2.6907   -2.1410    5.9956 H         1 <0>         0.1410
     44 H18         0.7113   -2.5590    4.5925 H         1 <0>         0.1365
@<TRIPOS>BOND
     1    1    2 1
     2    1   27 1
     3    1   28 1
     4    1   29 1
     5    2    7 ar
     6    2    3 ar
     7    3    4 ar
     8    3   30 1
     9    4    5 ar
    10    4   31 1
    11    5    6 ar
    12    5   32 1
    13    6    7 ar
    14    6   11 1
    15    7    8 1
    16    8    9 2
    17    8   10 1
    18   11   12 1
    19   12   13 2
    20   12   14 1
    21   14   19 1
    22   14   15 1
    23   14   20 1
    24   15   16 1
    25   15   33 1
    26   15   34 1
    27   16   17 1
    28   16   35 1
    29   16   36 1
    30   17   18 1
    31   18   19 1
    32   18   37 1
    33   18   38 1
    34   19   39 1
    35   19   40 1
    36   20   25 ar
    37   20   21 ar
    38   21   22 ar
    39   21   41 1
    40   22   23 ar
    41   22   42 1
    42   23   24 ar
    43   23   26 1
    44   24   25 ar
    45   24   43 1
    46   25   44 1
