@<TRIPOS>MOLECULE
ZINC37295453
   30    31     0     0     0
SMALL
USER_CHARGES

@<TRIPOS>ATOM
      1 C1         -0.0586    1.4960    0.1807 C.3       1 <0>        -0.1214
      2 C2         -0.0171   -0.0073    0.0835 C.ar      1 <0>        -0.0562
      3 C3         -0.0324   -0.6193   -1.1567 C.ar      1 <0>        -0.1102
      4 C4          0.0060   -1.9967   -1.2490 C.ar      1 <0>        -0.0929
      5 C5          0.0598   -2.7673   -0.0950 C.ar      1 <0>         0.0960
      6 C6          0.0750   -2.1500    1.1484 C.ar      1 <0>        -0.0448
      7 C7          0.0418   -0.7717    1.2341 C.ar      1 <0>        -0.1105
      8 C8          0.1335   -2.9826    2.4031 C.3       1 <0>        -0.1169
      9 N1          0.0984   -4.1653   -0.1854 N.pl3     1 <0>        -0.2770
     10 C9         -0.7126   -4.9259   -0.9425 C.2       1 <0>         0.1914
     11 C10        -0.3412   -6.2477   -0.7441 C.2       1 <0>        -0.2776
     12 C11         0.7376   -6.2418    0.1738 C.2       1 <0>         0.0307
     13 N2          0.9907   -5.0033    0.4920 N.2       1 <0>        -0.2015
     14 C12         1.4685   -7.4551    0.6885 C.3       1 <0>         0.5603
     15 F1          2.5471   -7.7423   -0.1548 F         1 <0>        -0.1577
     16 F2          1.9413   -7.2013    1.9805 F         1 <0>        -0.1576
     17 F3          0.5954   -8.5478    0.7177 F         1 <0>        -0.1581
     18 C13        -0.9499   -7.4262   -1.3657 C.2       1 <0>         0.4051
     19 O1         -1.8745   -7.2943   -2.1403 O.2       1 <0>        -0.4430
     20 Cl1        -1.9870   -4.3588   -1.9759 Cl        1 <0>         0.0558
     21 H1          0.9582    1.8888    0.1717 H         1 <0>         0.0791
     22 H2         -0.6116    1.8998   -0.6674 H         1 <0>         0.0733
     23 H3         -0.5522    1.7866    1.1080 H         1 <0>         0.0730
     24 H4         -0.0746   -0.0195   -2.0538 H         1 <0>         0.1396
     25 H5         -0.0063   -2.4740   -2.2177 H         1 <0>         0.1330
     26 H6          0.0580   -0.2907    2.2010 H         1 <0>         0.1391
     27 H7          1.1707   -3.0876    2.7215 H         1 <0>         0.0856
     28 H8         -0.4405   -2.4940    3.1905 H         1 <0>         0.0761
     29 H9         -0.2874   -3.9683    2.2051 H         1 <0>         0.0637
     30 H10        -0.5756   -8.4126   -1.1346 H         1 <0>         0.1236
@<TRIPOS>BOND
     1    1    2 1
     2    1   21 1
     3    1   22 1
     4    1   23 1
     5    2    7 ar
     6    2    3 ar
     7    3    4 ar
     8    3   24 1
     9    4    5 ar
    10    4   25 1
    11    5    6 ar
    12    5    9 1
    13    6    7 ar
    14    6    8 1
    15    7   26 1
    16    8   27 1
    17    8   28 1
    18    8   29 1
    19    9   13 1
    20    9   10 1
    21   10   11 2
    22   10   20 1
    23   11   12 1
    24   11   18 1
    25   12   13 2
    26   12   14 1
    27   14   15 1
    28   14   16 1
    29   14   17 1
    30   18   19 2
    31   18   30 1
