@<TRIPOS>MOLECULE
ZINC52282811
   41    43     0     0     0
SMALL
USER_CHARGES

@<TRIPOS>ATOM
      1 C1         -1.4377   -1.0389   -2.3636 C.3       1 <0>         0.0666
      2 N1         -0.6775   -1.2038   -1.1222 N.am      1 <0>        -0.5290
      3 C2         -1.1183   -0.6047    0.0273 C.2       1 <0>         0.5114
      4 C3         -0.3826   -0.7713    1.2050 C.2       1 <0>        -0.2003
      5 C4          0.7987   -1.5597    1.1603 C.2       1 <0>         0.5720
      6 O1          1.4651   -1.7276    2.1656 O.2       1 <0>        -0.4923
      7 N2          1.1734   -2.1201   -0.0067 N.am      1 <0>        -0.5503
      8 C5          0.4431   -1.9464   -1.1215 C.2       1 <0>         0.6994
      9 O2          0.8076   -2.4701   -2.1562 O.2       1 <0>        -0.5171
     10 C6          2.3903   -2.9340   -0.0596 C.3       1 <0>         0.0777
     11 C7         -0.8099   -0.1608    2.4279 C.1       1 <0>         0.2840
     12 N3         -1.1488    0.3234    3.3980 N.1       1 <0>        -0.3939
     13 N4         -2.2595    0.1449    0.0237 N.pl3     1 <0>        -0.6985
     14 C8         -2.1852    1.5307   -0.1474 C.ar      1 <0>         0.2174
     15 C9         -0.9641    2.1327   -0.4261 C.ar      1 <0>        -0.2021
     16 C10        -0.8899    3.5016   -0.5947 C.ar      1 <0>        -0.0432
     17 C11        -2.0289    4.2767   -0.4874 C.ar      1 <0>        -0.1904
     18 C12        -3.2524    3.6812   -0.2091 C.ar      1 <0>         0.2324
     19 C13        -3.3315    2.3057   -0.0447 C.ar      1 <0>        -0.1996
     20 N5         -4.4052    4.4671   -0.0997 N.am      1 <0>        -0.5701
     21 C14        -4.4420    5.9365   -0.1436 C.3       1 <0>         0.0844
     22 C15        -5.9367    6.2735    0.0206 C.3       1 <0>         0.0905
     23 N6         -6.5834    4.9582    0.1396 N.am      1 <0>        -0.7344
     24 C16        -5.6510    4.0002    0.0558 C.2       1 <0>         0.7009
     25 O3         -5.9114    2.8142    0.1192 O.2       1 <0>        -0.5649
     26 H1         -0.8984   -1.5104   -3.1852 H         1 <0>         0.1134
     27 H2         -2.4161   -1.5068   -2.2554 H         1 <0>         0.0862
     28 H3         -1.5640    0.0231   -2.5740 H         1 <0>         0.0900
     29 H4          2.8476   -2.9685    0.9292 H         1 <0>         0.1071
     30 H5          2.1374   -3.9453   -0.3784 H         1 <0>         0.0841
     31 H6          3.0912   -2.4940   -0.7690 H         1 <0>         0.0843
     32 H7         -3.1218   -0.2839    0.1400 H         1 <0>         0.4311
     33 H8         -0.0721    1.5296   -0.5105 H         1 <0>         0.1190
     34 H9          0.0604    3.9672   -0.8105 H         1 <0>         0.1341
     35 H10        -1.9675    5.3468   -0.6199 H         1 <0>         0.1286
     36 H11        -4.2825    1.8397    0.1670 H         1 <0>         0.1645
     37 H12        -3.8622    6.3584    0.6774 H         1 <0>         0.0950
     38 H13        -4.0708    6.3001   -1.1018 H         1 <0>         0.0947
     39 H14        -6.0992    6.8627    0.9231 H         1 <0>         0.0910
     40 H15        -6.3078    6.8044   -0.8560 H         1 <0>         0.0907
     41 H16        -7.5346    4.8080    0.2561 H         1 <0>         0.4356
@<TRIPOS>BOND
     1    1    2 1
     2    1   26 1
     3    1   27 1
     4    1   28 1
     5    2    8 am
     6    2    3 1
     7    3    4 2
     8    3   13 1
     9    4    5 1
    10    4   11 1
    11    5    6 2
    12    5    7 am
    13    7    8 am
    14    7   10 1
    15    8    9 2
    16   10   29 1
    17   10   30 1
    18   10   31 1
    19   11   12 3
    20   13   14 1
    21   13   32 1
    22   14   19 ar
    23   14   15 ar
    24   15   16 ar
    25   15   33 1
    26   16   17 ar
    27   16   34 1
    28   17   18 ar
    29   17   35 1
    30   18   19 ar
    31   18   20 1
    32   19   36 1
    33   20   24 am
    34   20   21 1
    35   21   22 1
    36   21   37 1
    37   21   38 1
    38   22   23 1
    39   22   39 1
    40   22   40 1
    41   23   24 am
    42   23   41 1
    43   24   25 2
