@<TRIPOS>MOLECULE
ZINC25674010
   41    44     0     0     0
SMALL
USER_CHARGES
3-[(1R)-2-(3,4-dihydro-2H-1,5-naphthyridin-1-yl)-1-methyl-2-oxo-ethyl]-1,3-benzoxazol-2-one
@<TRIPOS>ATOM
      1 C1          3.0267    1.0247   -0.4865 C.3       1 <0>        -0.1727
      2 C2          3.5145    1.8938    0.6744 C.3       1 <0>         0.1537
      3 H1          2.8531    1.7940    1.5477 H         1 <0>         0.1272
      4 C3          3.5669    3.3346    0.2359 C.2       1 <0>         0.5013
      5 O1          4.6131    3.8145   -0.1464 O.2       1 <0>        -0.4806
      6 N1          2.4511    4.0899    0.2684 N.am      1 <0>        -0.5466
      7 C4          1.1504    3.4885    0.5946 C.3       1 <0>         0.0877
      8 C5          0.1195    4.0341   -0.4021 C.3       1 <0>        -0.1348
      9 C6         -0.0010    5.5459   -0.2130 C.3       1 <0>        -0.0695
     10 C7          1.3593    6.1930   -0.2530 C.ar      1 <0>         0.1019
     11 C8          2.5108    5.4614   -0.0092 C.ar      1 <0>         0.1047
     12 C9          3.7484    6.0982   -0.0448 C.ar      1 <0>        -0.1050
     13 C10         3.7839    7.4537   -0.3290 C.ar      1 <0>        -0.1531
     14 C11         2.5953    8.1207   -0.5600 C.ar      1 <0>         0.0828
     15 N2          1.4422    7.4858   -0.5224 N.ar      1 <0>        -0.4663
     16 N3          4.8527    1.4583    1.0817 N.am      1 <0>        -0.5428
     17 C12         5.2185    0.9866    2.3421 C.ar      1 <0>         0.0697
     18 C13         4.5205    0.7862    3.5227 C.ar      1 <0>        -0.1047
     19 C14         5.1767    0.2921    4.6333 C.ar      1 <0>        -0.0962
     20 C15         6.5274   -0.0031    4.5696 C.ar      1 <0>        -0.1060
     21 C16         7.2293    0.1937    3.3964 C.ar      1 <0>        -0.0774
     22 C17         6.5796    0.6899    2.2770 C.ar      1 <0>         0.0397
     23 O2          6.9950    0.9790    1.0194 O.3       1 <0>        -0.2366
     24 C18         5.9540    1.4348    0.3050 C.2       1 <0>         0.6424
     25 O3          5.9983    1.7764   -0.8611 O.2       1 <0>        -0.4576
     26 H2          2.9885   -0.0270   -0.1663 H         1 <0>         0.0851
     27 H3          3.7190    1.1246   -1.3354 H         1 <0>         0.0880
     28 H4          2.0219    1.3517   -0.7923 H         1 <0>         0.0887
     29 H5          1.2211    2.3940    0.5104 H         1 <0>         0.0980
     30 H6          0.8685    3.7597    1.6227 H         1 <0>         0.0866
     31 H7          0.4488    3.8130   -1.4281 H         1 <0>         0.0780
     32 H8         -0.8551    3.5579   -0.2192 H         1 <0>         0.0985
     33 H9         -0.6211    5.9678   -1.0177 H         1 <0>         0.0956
     34 H10        -0.4689    5.7576    0.7598 H         1 <0>         0.0891
     35 H11         4.6588    5.5487    0.1442 H         1 <0>         0.1708
     36 H12         4.7251    7.9820   -0.3651 H         1 <0>         0.1394
     37 H13         2.6131    9.1781   -0.7793 H         1 <0>         0.1586
     38 H14         3.4664    1.0153    3.5741 H         1 <0>         0.1334
     39 H15         4.6341    0.1355    5.5539 H         1 <0>         0.1413
     40 H16         7.0348   -0.3894    5.4411 H         1 <0>         0.1442
     41 H17         8.2832   -0.0382    3.3515 H         1 <0>         0.1434
@<TRIPOS>BOND
     1    1    2 1
     2    1   26 1
     3    1   27 1
     4    1   28 1
     5    2    3 1
     6    2    4 1
     7    2   16 1
     8    4    5 2
     9    4    6 am
    10    6   11 1
    11    6    7 1
    12    7    8 1
    13    7   29 1
    14    7   30 1
    15    8    9 1
    16    8   31 1
    17    8   32 1
    18    9   10 1
    19    9   33 1
    20    9   34 1
    21   10   15 ar
    22   10   11 ar
    23   11   12 ar
    24   12   13 ar
    25   12   35 1
    26   13   14 ar
    27   13   36 1
    28   14   15 ar
    29   14   37 1
    30   16   24 am
    31   16   17 1
    32   17   22 ar
    33   17   18 ar
    34   18   19 ar
    35   18   38 1
    36   19   20 ar
    37   19   39 1
    38   20   21 ar
    39   20   40 1
    40   21   22 ar
    41   21   41 1
    42   22   23 1
    43   23   24 1
    44   24   25 2
