@<TRIPOS>MOLECULE
ZINC18051876
   64    67     0     0     0
SMALL
USER_CHARGES
3-(azepan-1-ylsulfonyl)-N'-[(2S)-2-(2-naphthyloxy)propanoyl]benzohydrazide
@<TRIPOS>ATOM
      1 C1         -2.9433    0.3592   -1.2537 C.3       1 <0>        -0.1822
      2 C2         -2.3701    0.0756    0.1363 C.3       1 <0>         0.0806
      3 H1         -2.1481    1.0180    0.6369 H         1 <0>         0.1087
      4 C3         -3.3775   -0.6986    0.9466 C.2       1 <0>         0.5208
      5 O1         -3.0960   -1.7983    1.3737 O.2       1 <0>        -0.5096
      6 N1         -4.5914   -0.1690    1.1968 N.am      1 <0>        -0.5169
      7 N2         -5.5279   -0.8888    1.9502 N.am      1 <0>        -0.5163
      8 C4         -6.7417   -0.3592    2.2004 C.2       1 <0>         0.5650
      9 O2         -7.0239    0.7429    1.7724 O.2       1 <0>        -0.5250
     10 C5         -7.7301   -1.1188    2.9954 C.ar      1 <0>        -0.1488
     11 C6         -7.4113   -2.3872    3.4835 C.ar      1 <0>        -0.0317
     12 C7         -8.3362   -3.0886    4.2287 C.ar      1 <0>        -0.1392
     13 C8         -9.5816   -2.5419    4.4838 C.ar      1 <0>         0.0101
     14 C9         -9.9058   -1.2876    3.9985 C.ar      1 <0>        -0.6849
     15 C10        -8.9878   -0.5733    3.2563 C.ar      1 <0>         0.0439
     16 S1        -11.4946   -0.6010    4.3286 S.o2      1 <0>         2.6839
     17 O3        -11.9755   -1.2370    5.5048 O.2       1 <0>        -0.9503
     18 O4        -11.3564    0.8096    4.2274 O.2       1 <0>        -0.9440
     19 N3        -12.4957   -1.0682    3.0949 N.pl3     1 <0>        -0.9859
     20 C11       -12.6038   -0.2182    1.9304 C.3       1 <0>         0.1223
     21 C12       -13.7286    0.8175    2.1384 C.3       1 <0>        -0.1421
     22 C13       -15.0436    0.1606    2.0832 C.3       1 <0>        -0.1196
     23 C14       -15.2749   -0.8758    3.1786 C.3       1 <0>        -0.1192
     24 C15       -14.6992   -2.2007    2.7430 C.3       1 <0>        -0.1253
     25 C16       -13.2455   -2.3322    3.2322 C.3       1 <0>         0.1096
     26 O5         -1.1706   -0.6906    0.0096 O.3       1 <0>        -0.2835
     27 C17        -0.0203   -0.0031   -0.2154 C.ar      1 <0>         0.1279
     28 C18        -0.0717    1.3789   -0.4235 C.ar      1 <0>        -0.1952
     29 C19         1.0622    2.0942   -0.6510 C.ar      1 <0>        -0.0611
     30 C20         2.3060    1.4394   -0.6783 C.ar      1 <0>        -0.0825
     31 C21         3.4971    2.1477   -0.9110 C.ar      1 <0>        -0.0950
     32 C22         4.6839    1.4819   -0.9317 C.ar      1 <0>        -0.1262
     33 C23         4.7378    0.1046   -0.7252 C.ar      1 <0>        -0.1037
     34 C24         3.6052   -0.6144   -0.4968 C.ar      1 <0>        -0.1145
     35 C25         2.3606    0.0387   -0.4681 C.ar      1 <0>        -0.0135
     36 C26         1.1709   -0.6708   -0.2357 C.ar      1 <0>        -0.1449
     37 H2         -3.1653   -0.5832   -1.7544 H         1 <0>         0.0800
     38 H3         -3.8582    0.9436   -1.1571 H         1 <0>         0.0818
     39 H4         -2.2146    0.9192   -1.8399 H         1 <0>         0.0843
     40 H5         -4.8165    0.7105    0.8553 H         1 <0>         0.4352
     41 H6         -5.3027   -1.7683    2.2918 H         1 <0>         0.4329
     42 H7         -6.4411   -2.8166    3.2817 H         1 <0>         0.1372
     43 H8         -8.0895   -4.0684    4.6101 H         1 <0>         0.1464
     44 H9        -10.3038   -3.0971    5.0639 H         1 <0>         0.1491
     45 H10        -9.2420    0.4060    2.8783 H         1 <0>         0.1565
     46 H11       -11.6601    0.3043    1.7737 H         1 <0>         0.0794
     47 H12       -12.8302   -0.8280    1.0558 H         1 <0>         0.0846
     48 H13       -13.6712    1.5761    1.3578 H         1 <0>         0.0789
     49 H14       -13.6039    1.2940    3.1108 H         1 <0>         0.0719
     50 H15       -15.1448   -0.3303    1.1153 H         1 <0>         0.0608
     51 H16       -15.8145    0.9270    2.1635 H         1 <0>         0.0597
     52 H17       -16.3448   -0.9849    3.3560 H         1 <0>         0.0661
     53 H18       -14.7853   -0.5507    4.0966 H         1 <0>         0.0632
     54 H19       -14.7216   -2.2645    1.6551 H         1 <0>         0.0697
     55 H20       -15.2965   -3.0100    3.1630 H         1 <0>         0.0782
     56 H21       -12.7447   -3.1058    2.6500 H         1 <0>         0.0676
     57 H22       -13.2518   -2.6278    4.2814 H         1 <0>         0.0949
     58 H23        -1.0260    1.8844   -0.4078 H         1 <0>         0.1327
     59 H24         1.0074    3.1610   -0.8104 H         1 <0>         0.1340
     60 H25         3.4708    3.2152   -1.0731 H         1 <0>         0.1277
     61 H26         5.5977    2.0291   -1.1105 H         1 <0>         0.1241
     62 H27         5.6926   -0.3996   -0.7470 H         1 <0>         0.1250
     63 H28         3.6621   -1.6812   -0.3387 H         1 <0>         0.1293
     64 H29         1.1979   -1.7383   -0.0743 H         1 <0>         0.1372
@<TRIPOS>BOND
     1    1    2 1
     2    1   37 1
     3    1   38 1
     4    1   39 1
     5    2    3 1
     6    2    4 1
     7    2   26 1
     8    4    5 2
     9    4    6 am
    10    6    7 1
    11    6   40 1
    12    7    8 am
    13    7   41 1
    14    8    9 2
    15    8   10 1
    16   10   15 ar
    17   10   11 ar
    18   11   12 ar
    19   11   42 1
    20   12   13 ar
    21   12   43 1
    22   13   14 ar
    23   13   44 1
    24   14   15 ar
    25   14   16 1
    26   15   45 1
    27   16   17 2
    28   16   18 2
    29   16   19 1
    30   19   25 1
    31   19   20 1
    32   20   21 1
    33   20   46 1
    34   20   47 1
    35   21   22 1
    36   21   48 1
    37   21   49 1
    38   22   23 1
    39   22   50 1
    40   22   51 1
    41   23   24 1
    42   23   52 1
    43   23   53 1
    44   24   25 1
    45   24   54 1
    46   24   55 1
    47   25   56 1
    48   25   57 1
    49   26   27 1
    50   27   36 ar
    51   27   28 ar
    52   28   29 ar
    53   28   58 1
    54   29   30 ar
    55   29   59 1
    56   30   35 ar
    57   30   31 ar
    58   31   32 ar
    59   31   60 1
    60   32   33 ar
    61   32   61 1
    62   33   34 ar
    63   33   62 1
    64   34   35 ar
    65   34   63 1
    66   35   36 ar
    67   36   64 1
