@<TRIPOS>MOLECULE
ZINC54267674
   39    40     0     0     0
SMALL
USER_CHARGES

@<TRIPOS>ATOM
      1 C1          0.0896    1.1402    1.7703 C.3       1 <0>        -0.1848
      2 C2          0.0724   -0.3653    1.4980 C.3       1 <0>         0.0251
      3 C3          0.6524   -1.1082    2.7033 C.3       1 <0>        -0.1874
      4 N1         -1.3103   -0.8059    1.2702 N.4       1 <0>        -0.5026
      5 C4         -1.3157   -2.2252    0.8913 C.3       1 <0>        -0.0262
      6 C5         -2.7559   -2.6842    0.6539 C.3       1 <0>         0.0947
      7 N2         -2.7613   -4.0996    0.2761 N.pl3     1 <0>        -0.7272
      8 C6         -3.9656   -4.7436    0.0082 C.ar      1 <0>         0.3065
      9 C7         -5.1621   -4.0770    0.2191 C.ar      1 <0>        -0.1966
     10 C8         -6.3652   -4.7254   -0.0503 C.ar      1 <0>         0.2501
     11 C9         -6.3430   -6.0542   -0.5349 C.ar      1 <0>        -0.2466
     12 C10        -5.1267   -6.7054   -0.7396 C.ar      1 <0>         0.0748
     13 C11        -3.9565   -6.0532   -0.4758 C.ar      1 <0>        -0.1280
     14 N3         -2.6662   -6.7431   -0.6997 N.pl3     1 <0>         0.0388
     15 O1         -1.7198   -6.1291   -1.1345 O.2       1 <0>        -0.1770
     16 O2         -2.5586   -7.9207   -0.4477 O.3       1 <0>        -0.1262
     17 C12        -7.6284   -6.7088   -0.8082 C.2       1 <0>         0.5555
     18 O3         -7.6797   -7.8512   -1.2262 O.2       1 <0>        -0.4870
     19 N4         -8.7540   -5.9940   -0.5773 N.am      1 <0>        -0.6543
     20 H1         -9.6207   -6.3952   -0.7466 H         1 <0>         0.4314
     21 C13        -8.6823   -4.7200   -0.1102 C.2       1 <0>         0.4220
     22 N5         -7.5618   -4.1141    0.1409 N.2       1 <0>        -0.5428
     23 H2          1.1156    1.4672    1.9394 H         1 <0>         0.1092
     24 H3         -0.3236    1.6695    0.9117 H         1 <0>         0.0833
     25 H4         -0.5109    1.3565    2.6539 H         1 <0>         0.0827
     26 H5          0.6730   -0.5816    0.6145 H         1 <0>         0.1422
     27 H6          0.6402   -2.1807    2.5093 H         1 <0>         0.0812
     28 H7          1.6784   -0.7812    2.8723 H         1 <0>         0.1090
     29 H8          0.0519   -0.8919    3.5868 H         1 <0>         0.0831
     30 H9         -1.8466   -0.6815    2.1157 H         1 <0>         0.4288
     31 H10        -0.7364   -2.3597   -0.0222 H         1 <0>         0.1452
     32 H11        -0.8732   -2.8169    1.6926 H         1 <0>         0.1422
     33 H12        -3.3353   -2.5497    1.5674 H         1 <0>         0.0923
     34 H13        -3.1984   -2.0925   -0.1474 H         1 <0>         0.0946
     35 H14        -1.9256   -4.5878    0.2126 H         1 <0>         0.4192
     36 H15        -5.1618   -3.0626    0.5899 H         1 <0>         0.1577
     37 H16        -5.1104   -7.7200   -1.1093 H         1 <0>         0.1674
     38 H17        -9.6042   -4.1842    0.0608 H         1 <0>         0.2180
     39 H18        -1.7199   -0.2582    0.5283 H         1 <0>         0.4318
@<TRIPOS>BOND
     1    1    2 1
     2    1   23 1
     3    1   24 1
     4    1   25 1
     5    2    3 1
     6    2    4 1
     7    2   26 1
     8    3   27 1
     9    3   28 1
    10    3   29 1
    11    4    5 1
    12    4   30 1
    13    4   39 1
    14    5    6 1
    15    5   31 1
    16    5   32 1
    17    6    7 1
    18    6   33 1
    19    6   34 1
    20    7    8 1
    21    7   35 1
    22    8   13 ar
    23    8    9 ar
    24    9   10 ar
    25    9   36 1
    26   10   22 1
    27   10   11 ar
    28   11   12 ar
    29   11   17 1
    30   12   13 ar
    31   12   37 1
    32   13   14 1
    33   14   15 2
    34   14   16 1
    35   17   18 2
    36   17   19 am
    37   19   20 1
    38   19   21 1
    39   21   22 2
    40   21   38 1
