@<TRIPOS>MOLECULE
ZINC06194960
   70    74     0     0     0
SMALL
USER_CHARGES
3-[(R)-(benzyl-(3-pyridylmethyl)amino)-[1-(2-methoxyethyl)tetrazol-5-yl]methyl]-6,7-dimethyl-1H-quinolin-2-one
@<TRIPOS>ATOM
      1 C1          1.9417    4.3351   -0.2204 C.3       1 <0>        -0.1244
      2 C2          0.6661    3.5354   -0.1561 C.ar      1 <0>        -0.1085
      3 C3         -0.5356    4.1625   -0.3283 C.ar      1 <0>        -0.0397
      4 C4         -1.7195    3.4205   -0.2692 C.ar      1 <0>        -0.1612
      5 C5         -3.0240    4.0603   -0.4497 C.2       1 <0>         0.0569
      6 C6         -4.1371    3.2875   -0.3986 C.2       1 <0>        -0.2710
      7 C7         -4.0292    1.9008   -0.1593 C.2       1 <0>         0.5506
      8 O1         -5.0430    1.2262   -0.1072 O.2       1 <0>        -0.5121
      9 N1         -2.8361    1.3049    0.0124 N.am      1 <0>        -0.6166
     10 H1         -2.7980    0.3494    0.1749 H         1 <0>         0.4247
     11 C8         -1.6663    2.0326   -0.0387 C.ar      1 <0>         0.2099
     12 C9         -0.4318    1.4170    0.1388 C.ar      1 <0>        -0.1717
     13 C10         0.7223    2.1683    0.0769 C.ar      1 <0>         0.0040
     14 C11         2.0591    1.4982    0.2638 C.3       1 <0>        -0.1363
     15 C12        -5.4950    3.9137   -0.5853 C.3       1 <0>         0.2130
     16 H2         -5.3799    4.9803   -0.7778 H         1 <0>         0.1594
     17 C13        -6.3160    3.7141    0.6625 C.2       1 <0>         0.1186
     18 N2         -6.8380    2.5882    1.0842 N.2       1 <0>        -0.2307
     19 N3         -7.4651    2.8275    2.1839 N.2       1 <0>        -0.0514
     20 N4         -7.3567    4.0769    2.4748 N.2       1 <0>        -0.0401
     21 N5         -6.6508    4.6564    1.5635 N.pl3     1 <0>        -0.2894
     22 C14        -6.2852    6.0743    1.5164 C.3       1 <0>         0.1016
     23 C15        -7.4214    6.8728    0.8741 C.3       1 <0>         0.0421
     24 O2         -7.0165    8.2340    0.7156 O.3       1 <0>        -0.3789
     25 C16        -8.0108    9.0706    0.1211 C.3       1 <0>         0.0292
     26 C17        -5.3818    3.4224   -2.9535 C.3       1 <0>         0.0457
     27 C18        -4.5040    2.2098   -3.1278 C.ar      1 <0>        -0.1569
     28 C19        -3.1896    2.2409   -2.7008 C.ar      1 <0>        -0.1010
     29 C20        -2.3860    1.1268   -2.8559 C.ar      1 <0>        -0.1146
     30 C21        -2.8936   -0.0145   -3.4480 C.ar      1 <0>        -0.0830
     31 C22        -4.2064   -0.0436   -3.8802 C.ar      1 <0>        -0.1088
     32 C23        -5.0116    1.0685   -3.7199 C.ar      1 <0>        -0.0877
     33 C24        -7.5248    3.8290   -1.9026 C.3       1 <0>         0.0460
     34 C25        -8.4609    3.1907   -0.9089 C.ar      1 <0>        -0.2050
     35 C26        -8.8961    1.8867   -1.0917 C.ar      1 <0>        -0.0377
     36 C27        -9.7531    1.3390   -0.1497 C.ar      1 <0>        -0.1464
     37 C28       -10.1503    2.1087    0.9276 C.ar      1 <0>         0.1461
     38 N6         -9.7202    3.3473    1.0666 N.ar      1 <0>        -0.4562
     39 C29        -8.9009    3.8992    0.1928 C.ar      1 <0>         0.0938
     40 H3          2.3051    4.3577   -1.2478 H         1 <0>         0.0785
     41 H4          1.7501    5.3528    0.1197 H         1 <0>         0.0725
     42 H5          2.6928    3.8733    0.4205 H         1 <0>         0.0777
     43 H6         -0.5710    5.2267   -0.5089 H         1 <0>         0.1429
     44 H7         -3.0974    5.1223   -0.6320 H         1 <0>         0.1585
     45 H8         -0.3774    0.3537    0.3199 H         1 <0>         0.1420
     46 H9          2.4377    1.1667   -0.7031 H         1 <0>         0.0874
     47 H10         2.7612    2.2050    0.7061 H         1 <0>         0.0843
     48 H11         1.9452    0.6381    0.9237 H         1 <0>         0.0771
     49 H12        -6.1122    6.4387    2.5290 H         1 <0>         0.1375
     50 H13        -5.3769    6.1959    0.9263 H         1 <0>         0.1196
     51 H14        -7.6577    6.4480   -0.1015 H         1 <0>         0.0507
     52 H15        -8.3033    6.8281    1.5131 H         1 <0>         0.0793
     53 H16        -8.2593    8.6915   -0.8702 H         1 <0>         0.0468
     54 H17        -8.9049    9.0716    0.7444 H         1 <0>         0.0529
     55 H18        -7.6265   10.0871    0.0354 H         1 <0>         0.1014
     56 H19        -6.0515    3.5121   -3.8088 H         1 <0>         0.1458
     57 H20        -4.7594    4.3145   -2.8842 H         1 <0>         0.1365
     58 H21        -2.7918    3.1341   -2.2423 H         1 <0>         0.1326
     59 H22        -1.3605    1.1495   -2.5180 H         1 <0>         0.1291
     60 H23        -2.2647   -0.8836   -3.5726 H         1 <0>         0.1333
     61 H24        -4.6030   -0.9353   -4.3427 H         1 <0>         0.1354
     62 H25        -6.0372    1.0457   -4.0576 H         1 <0>         0.1291
     63 H26        -7.5040    4.9068   -1.7416 H         1 <0>         0.1320
     64 H27        -7.8713    3.6194   -2.9146 H         1 <0>         0.1492
     65 H28        -8.5720    1.3103   -1.9456 H         1 <0>         0.1384
     66 H29       -10.1091    0.3252   -0.2583 H         1 <0>         0.1487
     67 H30       -10.8210    1.6908    1.6637 H         1 <0>         0.1682
     68 H31        -8.5699    4.9166    0.3401 H         1 <0>         0.1427
     69 N7         -6.1761    3.2530   -1.7186 N.4       1 <0>        -0.3910
     70 H32        -6.2665    2.2507   -1.5150 H         1 <0>         0.4483
@<TRIPOS>BOND
     1    1    2 1
     2    1   40 1
     3    1   41 1
     4    1   42 1
     5    2   13 ar
     6    2    3 ar
     7    3    4 ar
     8    3   43 1
     9    4   11 ar
    10    4    5 1
    11    5    6 2
    12    5   44 1
    13    6    7 1
    14    6   15 1
    15    7    8 2
    16    7    9 am
    17    9   10 1
    18    9   11 1
    19   11   12 ar
    20   12   13 ar
    21   12   45 1
    22   13   14 1
    23   14   46 1
    24   14   47 1
    25   14   48 1
    26   15   16 1
    27   15   17 1
    28   15   69 1
    29   17   21 1
    30   17   18 2
    31   18   19 1
    32   19   20 2
    33   20   21 1
    34   21   22 1
    35   22   23 1
    36   22   49 1
    37   22   50 1
    38   23   24 1
    39   23   51 1
    40   23   52 1
    41   24   25 1
    42   25   53 1
    43   25   54 1
    44   25   55 1
    45   26   27 1
    46   26   56 1
    47   26   57 1
    48   26   69 1
    49   27   32 ar
    50   27   28 ar
    51   28   29 ar
    52   28   58 1
    53   29   30 ar
    54   29   59 1
    55   30   31 ar
    56   30   60 1
    57   31   32 ar
    58   31   61 1
    59   32   62 1
    60   33   34 1
    61   33   63 1
    62   33   64 1
    63   33   69 1
    64   34   39 ar
    65   34   35 ar
    66   35   36 ar
    67   35   65 1
    68   36   37 ar
    69   36   66 1
    70   37   38 ar
    71   37   67 1
    72   38   39 ar
    73   39   68 1
    74   69   70 1
