@<TRIPOS>MOLECULE
ZINC65452351
   47    51     0     0     0
SMALL
USER_CHARGES

@<TRIPOS>ATOM
      1 C1          7.8957   -0.3223    2.8063 C.ar      1 <0>        -0.0960
      2 C2          8.4520   -1.0764    1.7878 C.ar      1 <0>        -0.1217
      3 C3          7.6402   -1.6937    0.8597 C.ar      1 <0>        -0.0712
      4 C4          6.2514   -1.5565    0.9499 C.ar      1 <0>        -0.0444
      5 C5          5.6970   -0.7932    1.9822 C.ar      1 <0>        -0.0910
      6 C6          6.5222   -0.1817    2.9023 C.ar      1 <0>        -0.1218
      7 C7          5.3778   -2.2116   -0.0368 C.2       1 <0>         0.1527
      8 N1          5.7469   -2.8580   -1.1080 N.2       1 <0>        -0.3012
      9 N2          4.6615   -3.3552   -1.8218 N.2       1 <0>        -0.2961
     10 C8          3.5295   -3.0670   -1.2663 C.2       1 <0>         0.0793
     11 C9          3.8636   -2.2803   -0.0146 C.3       1 <0>        -0.1290
     12 H1          3.4329   -1.2803   -0.0651 H         1 <0>         0.1390
     13 C10         3.3754   -3.0168    1.2344 C.3       1 <0>        -0.0088
     14 H2          3.8147   -2.5586    2.1206 H         1 <0>         0.1130
     15 C11         1.8515   -2.9247    1.3164 C.3       1 <0>        -0.1395
     16 C12         1.2314   -3.7940    0.2543 C.2       1 <0>         0.5211
     17 O1          0.2334   -3.4179   -0.3232 O.2       1 <0>        -0.5173
     18 N3          1.7741   -4.9832   -0.0589 N.am      1 <0>        -0.6636
     19 C13         2.9840   -5.3887    0.5114 C.ar      1 <0>         0.2003
     20 C14         3.7923   -4.4633    1.1588 C.ar      1 <0>        -0.1611
     21 C15         4.9812   -4.8681    1.7347 C.ar      1 <0>        -0.0390
     22 C16         5.3794   -6.1885    1.6509 C.ar      1 <0>        -0.1707
     23 C17         4.5873   -7.1123    0.9812 C.ar      1 <0>         0.2321
     24 C18         3.3915   -6.7107    0.4094 C.ar      1 <0>        -0.1953
     25 N4          4.9965   -8.4472    0.8855 N.am      1 <0>        -0.5700
     26 C19         4.3268   -9.4889    0.0925 C.3       1 <0>         0.0827
     27 C20         5.1797  -10.7480    0.3415 C.3       1 <0>         0.0914
     28 N5          6.2394  -10.2820    1.2483 N.am      1 <0>        -0.7341
     29 C21         6.0636   -8.9776    1.4971 C.2       1 <0>         0.7013
     30 O2          6.8034   -8.3343    2.2162 O.2       1 <0>        -0.5609
     31 H3          8.5366    0.1554    3.5326 H         1 <0>         0.1279
     32 H4          9.5247   -1.1813    1.7195 H         1 <0>         0.1302
     33 H5          8.0758   -2.2812    0.0651 H         1 <0>         0.1342
     34 H6          4.6254   -0.6827    2.0584 H         1 <0>         0.1288
     35 H7          6.0956    0.4084    3.6999 H         1 <0>         0.1307
     36 H8          2.5454   -3.3358   -1.6207 H         1 <0>         0.1903
     37 H9          1.5203   -3.2608    2.2989 H         1 <0>         0.1166
     38 H10         1.5422   -1.8906    1.1646 H         1 <0>         0.1163
     39 H11         1.3209   -5.5665   -0.6875 H         1 <0>         0.4130
     40 H12         5.6011   -4.1504    2.2515 H         1 <0>         0.1320
     41 H13         6.3071   -6.5023    2.1060 H         1 <0>         0.1624
     42 H14         2.7776   -7.4264   -0.1171 H         1 <0>         0.1323
     43 H15         3.3068   -9.6418    0.4452 H         1 <0>         0.0935
     44 H16         4.3315   -9.2266   -0.9655 H         1 <0>         0.0940
     45 H17         4.5832  -11.5261    0.8178 H         1 <0>         0.0909
     46 H18         5.6079  -11.1109   -0.5929 H         1 <0>         0.0908
     47 H19         6.9545  -10.8311    1.6062 H         1 <0>         0.4360
@<TRIPOS>BOND
     1    1    6 ar
     2    1    2 ar
     3    1   31 1
     4    2    3 ar
     5    2   32 1
     6    3    4 ar
     7    3   33 1
     8    4    5 ar
     9    4    7 1
    10    5    6 ar
    11    5   34 1
    12    6   35 1
    13    7   11 1
    14    7    8 2
    15    8    9 1
    16    9   10 2
    17   10   11 1
    18   10   36 1
    19   11   12 1
    20   11   13 1
    21   13   14 1
    22   13   20 1
    23   13   15 1
    24   15   16 1
    25   15   37 1
    26   15   38 1
    27   16   17 2
    28   16   18 am
    29   18   19 1
    30   18   39 1
    31   19   24 ar
    32   19   20 ar
    33   20   21 ar
    34   21   22 ar
    35   21   40 1
    36   22   23 ar
    37   22   41 1
    38   23   24 ar
    39   23   25 1
    40   24   42 1
    41   25   29 am
    42   25   26 1
    43   26   27 1
    44   26   43 1
    45   26   44 1
    46   27   28 1
    47   27   45 1
    48   27   46 1
    49   28   29 am
    50   28   47 1
    51   29   30 2
