@<TRIPOS>MOLECULE
ZINC45130677
   60    63     0     0     0
SMALL
USER_CHARGES

@<TRIPOS>ATOM
      1 C1         -0.0164    1.3594    0.0095 C.ar      1 <0>        -0.1145
      2 C2          1.1683    2.0908    0.0021 C.ar      1 <0>        -0.0695
      3 C3          2.3797    1.4664   -0.0132 C.ar      1 <0>        -0.1055
      4 C4          2.4362    0.0658   -0.0212 C.ar      1 <0>         0.1824
      5 C5          1.2296   -0.6766   -0.0132 C.ar      1 <0>        -0.1781
      6 C6          0.0021   -0.0041    0.0020 C.ar      1 <0>        -0.0793
      7 C7          1.3138   -2.0891   -0.0210 C.ar      1 <0>         0.4693
      8 N1          2.5171   -2.6446   -0.0354 N.ar      1 <0>        -0.5078
      9 C8          3.6180   -1.9100   -0.0425 C.ar      1 <0>         0.3511
     10 N2          3.6008   -0.5982   -0.0358 N.ar      1 <0>        -0.5334
     11 C9          4.9513   -2.6120   -0.0589 C.3       1 <0>         0.1308
     12 N3          5.3711   -2.8333   -1.4491 N.3       1 <0>        -0.5315
     13 C10         5.6452   -1.5577   -2.1259 C.3       1 <0>         0.0216
     14 C11         6.0206   -1.8280   -3.5846 C.3       1 <0>        -0.0020
     15 N4          7.2072   -2.6925   -3.6329 N.4       1 <0>        -0.5077
     16 C12         6.9103   -3.9716   -2.9748 C.3       1 <0>        -0.0017
     17 C13         6.5423   -3.7192   -1.5111 C.3       1 <0>         0.0271
     18 N5          0.1707   -2.8694   -0.0134 N.am      1 <0>        -0.6548
     19 C14         0.2721   -4.2133   -0.0210 C.2       1 <0>         0.6952
     20 O1          1.3676   -4.7401   -0.0347 O.2       1 <0>        -0.5163
     21 N6         -0.8410   -4.9731   -0.0136 N.am      1 <0>        -0.7368
     22 C15        -0.7308   -6.4339   -0.0219 C.3       1 <0>         0.1416
     23 C16        -2.1308   -7.0511   -0.0109 C.3       1 <0>        -0.1324
     24 C17        -2.0157   -8.5767   -0.0196 C.3       1 <0>         0.0666
     25 O2         -3.3232   -9.1532   -0.0093 O.3       1 <0>        -0.3853
     26 C18        -3.3285  -10.5821   -0.0163 C.3       1 <0>         0.0949
     27 C19        -4.7729  -11.0868   -0.0043 C.3       1 <0>        -0.1581
     28 C20        -5.2286  -11.8951    1.2122 C.3       1 <0>        -0.1765
     29 C21        -4.9950  -12.5955   -0.1278 C.3       1 <0>        -0.1725
     30 H1         -0.9630    1.8791    0.0259 H         1 <0>         0.1379
     31 H2          1.1267    3.1700    0.0083 H         1 <0>         0.1397
     32 H3          3.2903    2.0470   -0.0195 H         1 <0>         0.1428
     33 H4         -0.9234   -0.5608    0.0078 H         1 <0>         0.1300
     34 H5          5.6924   -1.9963    0.4508 H         1 <0>         0.0750
     35 H6          4.8632   -3.5713    0.4511 H         1 <0>         0.1157
     36 H7          4.7559   -0.9285   -2.0899 H         1 <0>         0.1233
     37 H8          6.4704   -1.0507   -1.6260 H         1 <0>         0.0669
     38 H9          5.1899   -2.3228   -4.0878 H         1 <0>         0.1368
     39 H10         6.2381   -0.8842   -4.0847 H         1 <0>         0.1381
     40 H11         7.4618   -2.8604   -4.5946 H         1 <0>         0.4333
     41 H12         6.0750   -4.4555   -3.4812 H         1 <0>         0.1396
     42 H13         7.7873   -4.6171   -3.0228 H         1 <0>         0.1402
     43 H14         7.3823   -3.2477   -1.0010 H         1 <0>         0.0643
     44 H15         6.3074   -4.6668   -1.0264 H         1 <0>         0.1275
     45 H16        -0.7034   -2.4490   -0.0025 H         1 <0>         0.4186
     46 H17        -1.7152   -4.5528   -0.0027 H         1 <0>         0.4008
     47 H18        -0.2001   -6.7532   -0.9189 H         1 <0>         0.0729
     48 H19        -0.1822   -6.7620    0.8610 H         1 <0>         0.0739
     49 H20        -2.6615   -6.7319    0.8861 H         1 <0>         0.0813
     50 H21        -2.6794   -6.7231   -0.8938 H         1 <0>         0.0806
     51 H22        -1.4849   -8.8959   -0.9166 H         1 <0>         0.0533
     52 H23        -1.4670   -8.9048    0.8633 H         1 <0>         0.0539
     53 H24        -2.8251  -10.9429   -0.9132 H         1 <0>         0.0547
     54 H25        -2.8071  -10.9517    0.8666 H         1 <0>         0.0522
     55 H26        -5.5042  -10.4301   -0.4754 H         1 <0>         0.1139
     56 H27        -4.4995  -12.0673    2.0040 H         1 <0>         0.0955
     57 H28        -6.2601  -11.7701    1.5418 H         1 <0>         0.0978
     58 H29        -5.8728  -12.9315   -0.6798 H         1 <0>         0.1003
     59 H30        -4.1123  -13.2286   -0.2176 H         1 <0>         0.0960
     60 H31         7.9728   -2.2393   -3.1568 H         1 <0>         0.4262
@<TRIPOS>BOND
     1    1    6 ar
     2    1    2 ar
     3    1   30 1
     4    2    3 ar
     5    2   31 1
     6    3    4 ar
     7    3   32 1
     8    4   10 ar
     9    4    5 ar
    10    5    6 ar
    11    5    7 ar
    12    6   33 1
    13    7    8 ar
    14    7   18 1
    15    8    9 ar
    16    9   10 ar
    17    9   11 1
    18   11   12 1
    19   11   34 1
    20   11   35 1
    21   12   17 1
    22   12   13 1
    23   13   14 1
    24   13   36 1
    25   13   37 1
    26   14   15 1
    27   14   38 1
    28   14   39 1
    29   15   16 1
    30   15   40 1
    31   15   60 1
    32   16   17 1
    33   16   41 1
    34   16   42 1
    35   17   43 1
    36   17   44 1
    37   18   19 am
    38   18   45 1
    39   19   20 2
    40   19   21 am
    41   21   22 1
    42   21   46 1
    43   22   23 1
    44   22   47 1
    45   22   48 1
    46   23   24 1
    47   23   49 1
    48   23   50 1
    49   24   25 1
    50   24   51 1
    51   24   52 1
    52   25   26 1
    53   26   27 1
    54   26   53 1
    55   26   54 1
    56   27   29 1
    57   27   28 1
    58   27   55 1
    59   28   29 1
    60   28   56 1
    61   28   57 1
    62   29   58 1
    63   29   59 1
