@<TRIPOS>MOLECULE
ZINC37175603
   35    36     0     0     0
SMALL
USER_CHARGES

@<TRIPOS>ATOM
      1 C1         -0.6378    0.7280   -0.1489 C.3       1 <0>         0.0736
      2 N1         -0.4511   -0.7026   -0.4035 N.pl3     1 <0>        -0.9929
      3 C2         -0.5533   -1.6622    0.6987 C.3       1 <0>         0.1406
      4 H1         -0.3717   -2.6631    0.3070 H         1 <0>         0.1104
      5 C3         -1.9714   -1.6080    1.2652 C.3       1 <0>        -0.1417
      6 C4         -1.9671   -2.0053    2.7678 C.3       1 <0>        -0.0612
      7 S1         -0.4154   -1.1602    3.3050 S.3       1 <0>        -0.2927
      8 C5          0.5339   -1.3350    1.7409 C.3       1 <0>        -0.0833
      9 S2         -0.1246   -1.2350   -1.9372 S.o2      1 <0>         2.6969
     10 O1         -0.5428   -2.5919   -1.9938 O.2       1 <0>        -0.9476
     11 O2         -0.6256   -0.2457   -2.8258 O.2       1 <0>        -0.9435
     12 C6          1.6274   -1.2397   -2.1251 C.ar      1 <0>        -0.7341
     13 C7          2.2741   -0.1105   -2.5936 C.ar      1 <0>         0.0645
     14 C8          3.6470   -0.1107   -2.7416 C.ar      1 <0>        -0.2084
     15 C9          4.3787   -1.2468   -2.4192 C.ar      1 <0>         0.3253
     16 C10         3.7261   -2.3791   -1.9489 C.ar      1 <0>        -0.1415
     17 C11         2.3531   -2.3703   -1.7983 C.ar      1 <0>         0.0886
     18 N2          4.5015   -3.5918   -1.6047 N.pl3     1 <0>         0.0400
     19 O3          5.4509   -3.9142   -2.2802 O.2       1 <0>        -0.1696
     20 O4          4.1854   -4.2601   -0.6481 O.3       1 <0>        -0.1384
     21 N3          5.7675   -1.2506   -2.5681 N.pl3     1 <0>        -0.8393
     22 H2          0.3229    1.1821    0.0941 H         1 <0>         0.0598
     23 H3         -1.0503    1.2045   -1.0382 H         1 <0>         0.0894
     24 H4         -1.3247    0.8617    0.6868 H         1 <0>         0.0876
     25 H5         -2.3631   -0.5962    1.1608 H         1 <0>         0.0919
     26 H6         -2.6076   -2.2986    0.7114 H         1 <0>         0.0929
     27 H7         -2.8378   -1.6049    3.2871 H         1 <0>         0.1143
     28 H8         -1.8949   -3.0857    2.8930 H         1 <0>         0.0979
     29 H9          1.2513   -2.1519    1.8179 H         1 <0>         0.1016
     30 H10         1.0378   -0.4013    1.4909 H         1 <0>         0.1106
     31 H11         1.7047    0.7722   -2.8444 H         1 <0>         0.1588
     32 H12         4.1514    0.7713   -3.1079 H         1 <0>         0.1562
     33 H13         1.8454   -3.2489   -1.4285 H         1 <0>         0.1616
     34 H14         6.2098   -0.5095   -3.0108 H         1 <0>         0.4163
     35 H15         6.2897   -1.9943   -2.2289 H         1 <0>         0.4151
@<TRIPOS>BOND
     1    1    2 1
     2    1   22 1
     3    1   23 1
     4    1   24 1
     5    2    3 1
     6    2    9 1
     7    3    4 1
     8    3    8 1
     9    3    5 1
    10    5    6 1
    11    5   25 1
    12    5   26 1
    13    6    7 1
    14    6   27 1
    15    6   28 1
    16    7    8 1
    17    8   29 1
    18    8   30 1
    19    9   10 2
    20    9   11 2
    21    9   12 1
    22   12   17 ar
    23   12   13 ar
    24   13   14 ar
    25   13   31 1
    26   14   15 ar
    27   14   32 1
    28   15   16 ar
    29   15   21 1
    30   16   17 ar
    31   16   18 1
    32   17   33 1
    33   18   19 2
    34   18   20 1
    35   21   34 1
    36   21   35 1
