@<TRIPOS>MOLECULE
ZINC06743293
   52    55     0     0     0
SMALL
USER_CHARGES

@<TRIPOS>ATOM
      1 C1          0.0734    1.4076   -0.2669 C.3       1 <0>        -0.1184
      2 C2          0.0793   -0.0989   -0.2275 C.ar      1 <0>        -0.0543
      3 C3          0.9379   -0.8060   -1.0506 C.ar      1 <0>        -0.1311
      4 C4          0.9498   -2.1859   -1.0208 C.ar      1 <0>        -0.0338
      5 C5          0.0953   -2.8699   -0.1598 C.ar      1 <0>        -0.0463
      6 C6         -0.7708   -2.1530    0.6704 C.ar      1 <0>         0.1381
      7 C7         -0.7687   -0.7677    0.6346 C.ar      1 <0>        -0.1553
      8 O1         -1.6079   -2.8119    1.5135 O.3       1 <0>        -0.4875
      9 C8          0.1039   -4.3535   -0.1244 C.2       1 <0>         0.1312
     10 C9          0.1982   -5.1541    1.0191 C.2       1 <0>        -0.1639
     11 C10         0.1674   -6.4598    0.5681 C.2       1 <0>        -0.0610
     12 N1          0.0586   -6.3893   -0.7917 N.pl3     1 <0>        -0.3338
     13 H1          0.0136   -7.1536   -1.3872 H         1 <0>         0.4534
     14 N2          0.0183   -5.1597   -1.1643 N.2       1 <0>        -0.2425
     15 C11         0.2626   -7.3556    1.7261 C.2       1 <0>         0.5997
     16 O2          0.2624   -8.5704    1.6661 O.2       1 <0>        -0.5139
     17 N3          0.3502   -6.6431    2.8638 N.am      1 <0>        -0.5942
     18 C12         0.3180   -5.2162    2.5172 C.3       1 <0>         0.2506
     19 H2         -0.5433   -4.7371    2.9826 H         1 <0>         0.1093
     20 C13         1.5907   -4.5442    2.9641 C.ar      1 <0>        -0.0805
     21 C14         2.8128   -5.1374    2.7055 C.ar      1 <0>        -0.0978
     22 C15         3.9821   -4.5235    3.1142 C.ar      1 <0>        -0.0979
     23 C16         3.9322   -3.3153    3.7826 C.ar      1 <0>        -0.1347
     24 C17         2.7076   -2.7182    4.0432 C.ar      1 <0>         0.1106
     25 C18         1.5358   -3.3335    3.6266 C.ar      1 <0>        -0.1297
     26 O3          2.6559   -1.5298    4.7005 O.3       1 <0>        -0.4971
     27 C19         0.4585   -7.1955    4.2163 C.3       1 <0>         0.1432
     28 C20         1.9343   -7.3829    4.5739 C.3       1 <0>        -0.1483
     29 C21         2.0474   -7.9598    5.9865 C.3       1 <0>         0.0799
     30 O4          3.4257   -8.1348    6.3205 O.3       1 <0>        -0.5725
     31 C22         1.8863   -2.9517   -1.9196 C.3       1 <0>        -0.1267
     32 H3          0.7959    1.7928    0.4526 H         1 <0>         0.0746
     33 H4          0.3417    1.7459   -1.2678 H         1 <0>         0.0703
     34 H5         -0.9217    1.7738   -0.0142 H         1 <0>         0.0695
     35 H6          1.6007   -0.2765   -1.7189 H         1 <0>         0.1290
     36 H7         -1.4332   -0.2104    1.2782 H         1 <0>         0.1328
     37 H8         -1.2636   -2.9111    2.4116 H         1 <0>         0.3822
     38 H9          2.8538   -6.0821    2.1838 H         1 <0>         0.1191
     39 H10         4.9353   -4.9888    2.9111 H         1 <0>         0.1294
     40 H11         4.8459   -2.8364    4.1023 H         1 <0>         0.1307
     41 H12         0.5813   -2.8683    3.8241 H         1 <0>         0.1276
     42 H13         2.6858   -0.7574    4.1195 H         1 <0>         0.3921
     43 H14        -0.0033   -6.5100    4.9268 H         1 <0>         0.0912
     44 H15        -0.0504   -8.1585    4.2573 H         1 <0>         0.0940
     45 H16         2.3961   -8.0684    3.8634 H         1 <0>         0.0753
     46 H17         2.4432   -6.4198    4.5330 H         1 <0>         0.0847
     47 H18         1.5856   -7.2743    6.6970 H         1 <0>         0.0479
     48 H19         1.5385   -8.9228    6.0274 H         1 <0>         0.0483
     49 H20         3.5732   -8.4981    7.2045 H         1 <0>         0.3825
     50 H21         2.8328   -3.1142   -1.4040 H         1 <0>         0.0703
     51 H22         1.4409   -3.9136   -2.1734 H         1 <0>         0.0832
     52 H23         2.0626   -2.3810   -2.8314 H         1 <0>         0.0706
@<TRIPOS>BOND
     1    1    2 1
     2    1   32 1
     3    1   33 1
     4    1   34 1
     5    2    7 ar
     6    2    3 ar
     7    3    4 ar
     8    3   35 1
     9    4    5 ar
    10    4   31 1
    11    5    6 ar
    12    5    9 1
    13    6    7 ar
    14    6    8 1
    15    7   36 1
    16    8   37 1
    17    9   14 2
    18    9   10 1
    19   10   18 1
    20   10   11 2
    21   11   12 1
    22   11   15 1
    23   12   13 1
    24   12   14 1
    25   15   16 2
    26   15   17 am
    27   17   18 1
    28   17   27 1
    29   18   19 1
    30   18   20 1
    31   20   25 ar
    32   20   21 ar
    33   21   22 ar
    34   21   38 1
    35   22   23 ar
    36   22   39 1
    37   23   24 ar
    38   23   40 1
    39   24   25 ar
    40   24   26 1
    41   25   41 1
    42   26   42 1
    43   27   28 1
    44   27   43 1
    45   27   44 1
    46   28   29 1
    47   28   45 1
    48   28   46 1
    49   29   30 1
    50   29   47 1
    51   29   48 1
    52   30   49 1
    53   31   50 1
    54   31   51 1
    55   31   52 1
