@<TRIPOS>MOLECULE
ZINC09501178
   54    58     0     0     0
SMALL
USER_CHARGES
N-(2-chlorophenyl)-2-[(2,4-dimethylphenyl)-oxo-BLAHyl]sulfanyl-acetamide
@<TRIPOS>ATOM
      1 C1         -6.0596   -1.0180   -0.0776 C.3       1 <0>        -0.1187
      2 C2         -4.7641   -0.2481   -0.0697 C.ar      1 <0>        -0.0596
      3 C3         -4.1693    0.0894    1.1326 C.ar      1 <0>        -0.1173
      4 C4         -2.9796    0.7902    1.1432 C.ar      1 <0>        -0.0804
      5 C5         -2.3860    1.1662   -0.0551 C.ar      1 <0>         0.1078
      6 C6         -2.9857    0.8258   -1.2604 C.ar      1 <0>        -0.0487
      7 C7         -4.1729    0.1197   -1.2642 C.ar      1 <0>        -0.1144
      8 C8         -2.3418    1.2258   -2.5628 C.3       1 <0>        -0.1160
      9 N1         -1.1830    1.8817   -0.0477 N.am      1 <0>        -0.4587
     10 C9         -0.0112    1.2130   -0.0578 C.2       1 <0>         0.5680
     11 O1          0.0057   -0.0032   -0.0733 O.2       1 <0>        -0.4749
     12 C10         1.2481    1.9790   -0.0561 C.ar      1 <0>        -0.1549
     13 C11         2.4851    1.3369   -0.0716 C.ar      1 <0>        -0.0226
     14 C12         3.6423    2.0868   -0.0690 C.ar      1 <0>        -0.1242
     15 C13         3.5796    3.4713   -0.0516 C.ar      1 <0>        -0.0502
     16 C14         2.3603    4.1192   -0.0366 C.ar      1 <0>        -0.1297
     17 C15         1.1860    3.3819   -0.0380 C.ar      1 <0>         0.1642
     18 N2         -0.0561    4.0039   -0.0224 N.pl3     1 <0>        -0.4198
     19 C16        -1.2121    3.2676   -0.0243 C.2       1 <0>         0.4224
     20 N3         -2.2073    4.1219   -0.0066 N.2       1 <0>        -0.2666
     21 N4         -1.7568    5.3253    0.0062 N.2       1 <0>        -0.2542
     22 C17        -0.4453    5.3160   -0.0026 C.2       1 <0>         0.1502
     23 S1          0.6137    6.7241    0.0093 S.3       1 <0>         0.1006
     24 C18        -0.5292    8.1326    0.0351 C.3       1 <0>        -0.1585
     25 C19         0.2576    9.4178    0.0471 C.2       1 <0>         0.5421
     26 O2          1.4701    9.3867    0.0391 O.2       1 <0>        -0.5011
     27 N5         -0.3860   10.6018    0.0667 N.am      1 <0>        -0.6626
     28 C20         0.3421   11.7926    0.1726 C.ar      1 <0>         0.1518
     29 C21         1.5884   11.9020   -0.4299 C.ar      1 <0>        -0.1085
     30 C22         2.3020   13.0802   -0.3286 C.ar      1 <0>        -0.0954
     31 C23         1.7820   14.1469    0.3816 C.ar      1 <0>        -0.1178
     32 C24         0.5440   14.0402    0.9878 C.ar      1 <0>        -0.0921
     33 C25        -0.1780   12.8659    0.8855 C.ar      1 <0>        -0.0613
     34 Cl1        -1.7322   12.7319    1.6472 Cl        1 <0>        -0.0618
     35 H1         -5.8469   -2.0869   -0.0916 H         1 <0>         0.0759
     36 H2         -6.6331   -0.7733    0.8165 H         1 <0>         0.0708
     37 H3         -6.6358   -0.7505   -0.9633 H         1 <0>         0.0705
     38 H4         -4.6337   -0.1993    2.0639 H         1 <0>         0.1327
     39 H5         -2.5134    1.0496    2.0822 H         1 <0>         0.1252
     40 H6         -4.6397   -0.1457   -2.2013 H         1 <0>         0.1328
     41 H7         -1.6615    0.4389   -2.8886 H         1 <0>         0.0765
     42 H8         -3.1129    1.3753   -3.3186 H         1 <0>         0.0772
     43 H9         -1.7852    2.1525   -2.4234 H         1 <0>         0.0564
     44 H10         2.5370    0.2583   -0.0851 H         1 <0>         0.1547
     45 H11         4.6026    1.5927   -0.0809 H         1 <0>         0.1482
     46 H12         4.4924    4.0485   -0.0500 H         1 <0>         0.1493
     47 H13         2.3214    5.1984   -0.0238 H         1 <0>         0.1451
     48 H14        -1.1627    8.1026   -0.8514 H         1 <0>         0.1347
     49 H15        -1.1516    8.0792    0.9283 H         1 <0>         0.1350
     50 H16        -1.3538   10.6287    0.0075 H         1 <0>         0.4178
     51 H17         1.9975   11.0679   -0.9807 H         1 <0>         0.1500
     52 H18         3.2694   13.1670   -0.8008 H         1 <0>         0.1352
     53 H19         2.3444   15.0653    0.4632 H         1 <0>         0.1357
     54 H20         0.1408   14.8749    1.5420 H         1 <0>         0.1393
@<TRIPOS>BOND
     1    1    2 1
     2    1   35 1
     3    1   36 1
     4    1   37 1
     5    2    7 ar
     6    2    3 ar
     7    3    4 ar
     8    3   38 1
     9    4    5 ar
    10    4   39 1
    11    5    6 ar
    12    5    9 1
    13    6    7 ar
    14    6    8 1
    15    7   40 1
    16    8   41 1
    17    8   42 1
    18    8   43 1
    19    9   19 1
    20    9   10 am
    21   10   11 2
    22   10   12 1
    23   12   17 ar
    24   12   13 ar
    25   13   14 ar
    26   13   44 1
    27   14   15 ar
    28   14   45 1
    29   15   16 ar
    30   15   46 1
    31   16   17 ar
    32   16   47 1
    33   17   18 1
    34   18   22 1
    35   18   19 1
    36   19   20 2
    37   20   21 1
    38   21   22 2
    39   22   23 1
    40   23   24 1
    41   24   25 1
    42   24   48 1
    43   24   49 1
    44   25   26 2
    45   25   27 am
    46   27   28 1
    47   27   50 1
    48   28   33 ar
    49   28   29 ar
    50   29   30 ar
    51   29   51 1
    52   30   31 ar
    53   30   52 1
    54   31   32 ar
    55   31   53 1
    56   32   33 ar
    57   32   54 1
    58   33   34 1
