@<TRIPOS>MOLECULE
ZINC05706726
   72    73     0     0     0
SMALL
USER_CHARGES
2-[6-amino-2-bis(benzyloxycarbonyl)amino-hexanoyl]amino-3-methyl-butanoic acid
@<TRIPOS>ATOM
      1 C1         -0.9151    3.1714    1.2771 C.3       1 <0>        -0.1587
      2 C2          0.5460    3.6251    1.2656 C.3       1 <0>        -0.0783
      3 C3          1.2588    3.0809    2.5052 C.3       1 <0>        -0.1442
      4 C4          1.2350    3.0943    0.0069 C.3       1 <0>         0.1038
      5 H1          0.7272    3.4820   -0.8762 H         1 <0>         0.0874
      6 C5          1.1765    1.5884   -0.0006 C.2       1 <0>         0.4632
      7 O1          2.1986    0.9442   -0.0139 O.co2     1 <0>        -0.6302
      8 N1          2.6340    3.5287   -0.0041 N.am      1 <0>        -0.6912
      9 C6          3.2966    3.6377   -1.1727 C.2       1 <0>         0.5052
     10 O2          2.7347    3.3760   -2.2151 O.2       1 <0>        -0.5099
     11 C7          4.7358    4.0846   -1.1840 C.3       1 <0>         0.1114
     12 H2          5.2656    3.6249   -0.3497 H         1 <0>         0.1327
     13 C8          4.7980    5.6075   -1.0507 C.3       1 <0>        -0.1311
     14 C9          6.2581    6.0503   -0.9369 C.3       1 <0>        -0.1202
     15 C10         6.3202    7.5732   -0.8036 C.3       1 <0>        -0.1507
     16 C11         7.7803    8.0160   -0.6897 C.3       1 <0>        -0.0066
     17 N2          5.3633    3.6787   -2.4441 N.am      1 <0>        -0.5129
     18 C12         6.4304    2.8555   -2.4310 C.2       1 <0>         0.6612
     19 O3          6.9506    2.5190   -3.4758 O.2       1 <0>        -0.4973
     20 O4          6.9195    2.4064   -1.2603 O.3       1 <0>        -0.3517
     21 C13         8.0704    1.5233   -1.3222 C.3       1 <0>         0.1279
     22 C14         8.4743    1.1259    0.0743 C.ar      1 <0>        -0.1031
     23 C15         9.3937    1.8877    0.7710 C.ar      1 <0>        -0.0963
     24 C16         9.7606    1.5259    2.0537 C.ar      1 <0>        -0.1283
     25 C17         9.2156    0.3968    2.6360 C.ar      1 <0>        -0.1046
     26 C18         8.3005   -0.3681    1.9372 C.ar      1 <0>        -0.1176
     27 C19         7.9297   -0.0034    0.6564 C.ar      1 <0>        -0.0841
     28 C20         4.8734    4.1284   -3.6164 C.2       1 <0>         0.6716
     29 O5          5.3937    3.7918   -4.6611 O.2       1 <0>        -0.5086
     30 O6          3.8078    4.9504   -3.6295 O.3       1 <0>        -0.3248
     31 C21         3.3343    5.3953   -4.9280 C.3       1 <0>         0.1264
     32 C22         2.1440    6.3014   -4.7453 C.ar      1 <0>        -0.0955
     33 C23         0.8679    5.7704   -4.7255 C.ar      1 <0>        -0.0780
     34 C24        -0.2236    6.6010   -4.5530 C.ar      1 <0>        -0.1179
     35 C25        -0.0396    7.9636   -4.4104 C.ar      1 <0>        -0.1071
     36 C26         1.2362    8.4952   -4.4359 C.ar      1 <0>        -0.1302
     37 C27         2.3280    7.6640   -4.6031 C.ar      1 <0>        -0.1004
     38 H3         -0.9574    2.0822    1.2717 H         1 <0>         0.1104
     39 H4         -1.4059    3.5496    2.1739 H         1 <0>         0.0367
     40 H5         -1.4229    3.5591    0.3940 H         1 <0>         0.0445
     41 H6          0.5883    4.7143    1.2711 H         1 <0>         0.0554
     42 H7          1.2166    1.9917    2.4998 H         1 <0>         0.0666
     43 H8          2.2998    3.4041    2.4970 H         1 <0>         0.0409
     44 H9          0.7680    3.4590    3.4020 H         1 <0>         0.0512
     45 H10         3.0835    3.7380    0.8296 H         1 <0>         0.3897
     46 H11         4.3461    6.0679   -1.9294 H         1 <0>         0.0983
     47 H12         4.2539    5.9166   -0.1582 H         1 <0>         0.0947
     48 H13         6.7099    5.5899   -0.0583 H         1 <0>         0.0831
     49 H14         6.8021    5.7412   -1.8294 H         1 <0>         0.0716
     50 H15         5.8684    8.0336   -1.6822 H         1 <0>         0.0893
     51 H16         5.7762    7.8823    0.0889 H         1 <0>         0.0919
     52 H17         8.2322    7.5556    0.1889 H         1 <0>         0.1335
     53 H18         8.3244    7.7069   -1.5822 H         1 <0>         0.1342
     54 H19         8.7946    9.7958   -0.4849 H         1 <0>         0.4386
     55 H20         7.3702    9.9282   -1.3330 H         1 <0>         0.4368
     56 H21         7.8137    0.6314   -1.8938 H         1 <0>         0.0874
     57 H22         8.8990    2.0396   -1.8070 H         1 <0>         0.0835
     58 H23         9.8226    2.7675    0.3145 H         1 <0>         0.1203
     59 H24        10.4758    2.1233    2.5996 H         1 <0>         0.1234
     60 H25         9.5050    0.1121    3.6368 H         1 <0>         0.1253
     61 H26         7.8750   -1.2504    2.3920 H         1 <0>         0.1295
     62 H27         7.2147   -0.6010    0.1104 H         1 <0>         0.1303
     63 H28         4.1297    5.9388   -5.4381 H         1 <0>         0.0767
     64 H29         3.0445    4.5306   -5.5249 H         1 <0>         0.0840
     65 H30         0.7238    4.7063   -4.8410 H         1 <0>         0.1299
     66 H31        -1.2204    6.1857   -4.5335 H         1 <0>         0.1281
     67 H32        -0.8927    8.6129   -4.2795 H         1 <0>         0.1238
     68 H33         1.3799    9.5598   -4.3249 H         1 <0>         0.1210
     69 H34         3.3248    8.0793   -4.6230 H         1 <0>         0.1170
     70 O7         -0.0110    0.9628    0.0073 O.co2     1 <0>        -0.7509
     71 N3          7.8273    9.4812   -0.5400 N.4       1 <0>        -0.6470
     72 H35         7.3386    9.7482    0.3226 H         1 <0>         0.4392
@<TRIPOS>BOND
     1    1    2 1
     2    1   38 1
     3    1   39 1
     4    1   40 1
     5    2    3 1
     6    2    4 1
     7    2   41 1
     8    3   42 1
     9    3   43 1
    10    3   44 1
    11    4    5 1
    12    4    6 1
    13    4    8 1
    14    6    7 2
    15    6   70 1
    16    8    9 am
    17    8   45 1
    18    9   10 2
    19    9   11 1
    20   11   12 1
    21   11   13 1
    22   11   17 1
    23   13   14 1
    24   13   46 1
    25   13   47 1
    26   14   15 1
    27   14   48 1
    28   14   49 1
    29   15   16 1
    30   15   50 1
    31   15   51 1
    32   16   52 1
    33   16   53 1
    34   16   71 1
    35   17   18 am
    36   17   28 am
    37   18   19 2
    38   18   20 1
    39   20   21 1
    40   21   22 1
    41   21   56 1
    42   21   57 1
    43   22   27 ar
    44   22   23 ar
    45   23   24 ar
    46   23   58 1
    47   24   25 ar
    48   24   59 1
    49   25   26 ar
    50   25   60 1
    51   26   27 ar
    52   26   61 1
    53   27   62 1
    54   28   29 2
    55   28   30 1
    56   30   31 1
    57   31   32 1
    58   31   63 1
    59   31   64 1
    60   32   37 ar
    61   32   33 ar
    62   33   34 ar
    63   33   65 1
    64   34   35 ar
    65   34   66 1
    66   35   36 ar
    67   35   67 1
    68   36   37 ar
    69   36   68 1
    70   37   69 1
    71   54   71 1
    72   55   71 1
    73   71   72 1
