@<TRIPOS>MOLECULE
ZINC26895846
   61    66     0     0     0
SMALL
USER_CHARGES
N-(2-furylmethyl)-dimethyl-morpholino-BLAHamine
@<TRIPOS>ATOM
      1 C1          4.6026    3.8049   -5.7147 C.3       1 <0>        -0.1525
      2 C2          4.8572    4.0851   -4.2323 C.3       1 <0>         0.1130
      3 C3          3.9061    3.2439   -3.3779 C.3       1 <0>        -0.1468
      4 C4          4.3386    3.2946   -1.9370 C.ar      1 <0>         0.0893
      5 C5          5.5797    3.7114   -1.5715 C.ar      1 <0>        -0.1013
      6 C6          5.9394    3.7336   -0.2192 C.ar      1 <0>         0.4174
      7 N1          5.0783    3.3529    0.7103 N.ar      1 <0>        -0.4612
      8 C7          3.8688    2.9453    0.3922 C.ar      1 <0>         0.0552
      9 C8          3.4149    2.8900   -0.9415 C.ar      1 <0>        -0.0983
     10 C9          2.0379    2.4169   -1.1218 C.2       1 <0>         0.0886
     11 C10         1.3555    2.0712    0.0073 C.2       1 <0>        -0.1542
     12 S1          2.4774    2.3680    1.3364 S.3       1 <0>         0.3550
     13 C11        -0.0512    1.5554    0.0204 C.3       1 <0>         0.3601
     14 H1         -0.6198    1.9092    0.8931 H         1 <0>         0.1539
     15 N2         -0.6641    2.0135   -1.2442 N.pl3     1 <0>        -0.6908
     16 C12         0.1095    2.0972   -2.3753 C.cat     1 <0>         0.5076
     17 N3          1.3898    2.3102   -2.3484 N.pl3     1 <0>        -0.5488
     18 N4         -0.0513    0.0876    0.0799 N.3       1 <0>        -0.6649
     19 C13        -1.0265   -0.3993    1.0648 C.3       1 <0>         0.1320
     20 C14        -0.9980   -1.9056    1.0977 C.2       1 <0>        -0.0542
     21 C15        -0.2159   -2.6605    1.8900 C.2       1 <0>        -0.1623
     22 C16        -0.5134   -4.0104    1.5930 C.2       1 <0>        -0.2180
     23 C17        -1.4595   -3.9997    0.6369 C.2       1 <0>        -0.0114
     24 O1         -1.7533   -2.7221    0.3449 O.3       1 <0>        -0.1784
     25 N5          7.2103    4.1592    0.1501 N.pl3     1 <0>        -0.4900
     26 C18         7.9487    3.0851    0.8301 C.3       1 <0>         0.0007
     27 C19         9.3596    3.5759    1.1650 C.3       1 <0>         0.0591
     28 O2          9.2703    4.7601    1.9620 O.3       1 <0>        -0.3670
     29 C20         8.5579    5.8271    1.3299 C.3       1 <0>         0.0590
     30 C21         7.1389    5.3590    0.9966 C.3       1 <0>         0.0025
     31 C22         6.5923    4.1588   -2.5947 C.3       1 <0>         0.1019
     32 O3          6.2027    3.7255   -3.8975 O.3       1 <0>        -0.3400
     33 C23         4.6334    5.5705   -3.9419 C.3       1 <0>        -0.1933
     34 H2          3.5687    4.0822   -5.9680 H         1 <0>         0.0825
     35 H3          4.7552    2.7345   -5.9170 H         1 <0>         0.0767
     36 H4          5.3009    4.3966   -6.3249 H         1 <0>         0.0882
     37 H5          2.8846    3.6423   -3.4661 H         1 <0>         0.1073
     38 H6          3.9244    2.2011   -3.7274 H         1 <0>         0.1345
     39 H7         -1.7290    2.2860   -1.2848 H         1 <0>         0.4943
     40 H8         -0.3521    1.9819   -3.3671 H         1 <0>         0.2556
     41 H9         -0.3142   -0.3194   -0.9077 H         1 <0>         0.3699
     42 H10        -0.7705   -0.0059    2.0596 H         1 <0>         0.1146
     43 H11        -2.0336   -0.0577    0.7835 H         1 <0>         0.0724
     44 H12         0.5013   -2.3039    2.6146 H         1 <0>         0.1491
     45 H13        -0.0665   -4.8828    2.0465 H         1 <0>         0.1559
     46 H14        -1.9102   -4.8707    0.1845 H         1 <0>         0.2114
     47 H15         7.4245    2.8098    1.7571 H         1 <0>         0.0644
     48 H16         8.0108    2.2077    0.1696 H         1 <0>         0.1153
     49 H17         9.8964    2.7951    1.7238 H         1 <0>         0.1259
     50 H18         9.9012    3.7983    0.2337 H         1 <0>         0.0818
     51 H19         8.5111    6.6903    2.0101 H         1 <0>         0.1254
     52 H20         9.0772    6.1172    0.4046 H         1 <0>         0.0815
     53 H21         6.6047    6.1560    0.4586 H         1 <0>         0.1135
     54 H22         6.6016    5.1204    1.9263 H         1 <0>         0.0644
     55 H23         6.6613    5.2566   -2.5865 H         1 <0>         0.1051
     56 H24         7.5746    3.7278   -2.3512 H         1 <0>         0.1436
     57 H25         4.8175    5.7674   -2.8754 H         1 <0>         0.0564
     58 H26         3.5966    5.8406   -4.1910 H         1 <0>         0.0806
     59 H27         5.3252    6.1714   -4.5504 H         1 <0>         0.0924
     60 H28         5.3690    3.3738    1.7710 H         1 <0>         0.4878
     61 H29         1.9620    2.4063   -3.2830 H         1 <0>         0.4876
@<TRIPOS>BOND
     1    1    2 1
     2    1   34 1
     3    1   35 1
     4    1   36 1
     5    2   32 1
     6    2    3 1
     7    2   33 1
     8    3    4 1
     9    3   37 1
    10    3   38 1
    11    4    9 ar
    12    4    5 ar
    13    5    6 ar
    14    5   31 1
    15    6    7 ar
    16    6   25 1
    17    7    8 ar
    18    7   60 1
    19    8   12 1
    20    8    9 ar
    21    9   10 1
    22   10   17 1
    23   10   11 2
    24   11   12 1
    25   11   13 1
    26   13   14 1
    27   13   15 1
    28   13   18 1
    29   15   16 2
    30   15   39 1
    31   16   17 1
    32   16   40 1
    33   17   61 1
    34   18   19 1
    35   18   41 1
    36   19   20 1
    37   19   42 1
    38   19   43 1
    39   20   24 1
    40   20   21 2
    41   21   22 1
    42   21   44 1
    43   22   23 2
    44   22   45 1
    45   23   24 1
    46   23   46 1
    47   25   30 1
    48   25   26 1
    49   26   27 1
    50   26   47 1
    51   26   48 1
    52   27   28 1
    53   27   49 1
    54   27   50 1
    55   28   29 1
    56   29   30 1
    57   29   51 1
    58   29   52 1
    59   30   53 1
    60   30   54 1
    61   31   32 1
    62   31   55 1
    63   31   56 1
    64   33   57 1
    65   33   58 1
    66   33   59 1
