@<TRIPOS>MOLECULE
ZINC13826161
   31    33     0     0     0
SMALL
USER_CHARGES

@<TRIPOS>ATOM
      1 C1         -0.0184    1.5028    0.0103 C.3       1 <0>        -0.1137
      2 C2          0.0021   -0.0041    0.0020 C.2       1 <0>         0.4014
      3 N1          0.0048   -0.6138   -1.1438 N.2       1 <0>        -0.5201
      4 C3          0.0233   -1.9688   -1.2281 C.ar      1 <0>         0.1458
      5 C4          0.0268   -2.6240   -2.4589 C.ar      1 <0>        -0.0622
      6 C5          0.0462   -4.0025   -2.5052 C.ar      1 <0>        -0.1051
      7 C6          0.0619   -4.7549   -1.3386 C.ar      1 <0>         0.1471
      8 C7          0.0589   -4.1270   -0.0964 C.ar      1 <0>        -0.1165
      9 C8          0.0398   -2.7286   -0.0358 C.ar      1 <0>        -0.1461
     10 C9          0.0362   -2.0081    1.2417 C.2       1 <0>         0.5390
     11 N2          0.0223   -0.6557    1.1952 N.am      1 <0>        -0.6511
     12 O1          0.0497   -2.6040    2.3036 O.2       1 <0>        -0.4714
     13 S1          0.0783   -5.0822    1.3841 S.3       1 <0>         0.0771
     14 C10         1.7924   -5.2902    1.7348 C.ar      1 <0>        -0.0491
     15 C11         2.7658   -4.7359    0.9027 C.ar      1 <0>        -0.1940
     16 C12         4.0965   -4.9218    1.2124 C.ar      1 <0>         0.1211
     17 N3          4.4531   -5.6131    2.2790 N.ar      1 <0>        -0.4938
     18 C13         3.5629   -6.1530    3.0906 C.ar      1 <0>         0.1213
     19 C14         2.2120   -6.0086    2.8550 C.ar      1 <0>        -0.1572
     20 O2          0.0799   -6.1133   -1.4099 O.3       1 <0>        -0.4772
     21 H1          1.0042    1.8801    0.0026 H         1 <0>         0.1014
     22 H2         -0.5455    1.8639   -0.8728 H         1 <0>         0.1066
     23 H3         -0.5286    1.8543    0.9071 H         1 <0>         0.0890
     24 H4          0.0140   -2.0526   -3.3753 H         1 <0>         0.1538
     25 H5          0.0488   -4.5033   -3.4621 H         1 <0>         0.1517
     26 H6          2.4810   -4.1696    0.0283 H         1 <0>         0.1244
     27 H7          4.8568   -4.4968    0.5739 H         1 <0>         0.1563
     28 H8          3.8969   -6.7112    3.9527 H         1 <0>         0.1623
     29 H9          1.4890   -6.4490    3.5255 H         1 <0>         0.1405
     30 H10         0.9685   -6.4941   -1.4347 H         1 <0>         0.3967
     31 H11         0.0232   -0.1465    2.0208 H         1 <0>         0.4221
@<TRIPOS>BOND
     1    1    2 1
     2    1   21 1
     3    1   22 1
     4    1   23 1
     5    2   11 1
     6    2    3 2
     7    3    4 1
     8    4    9 ar
     9    4    5 ar
    10    5    6 ar
    11    5   24 1
    12    6    7 ar
    13    6   25 1
    14    7    8 ar
    15    7   20 1
    16    8    9 ar
    17    8   13 1
    18    9   10 1
    19   10   11 am
    20   10   12 2
    21   11   31 1
    22   13   14 1
    23   14   19 ar
    24   14   15 ar
    25   15   16 ar
    26   15   26 1
    27   16   17 ar
    28   16   27 1
    29   17   18 ar
    30   18   19 ar
    31   18   28 1
    32   19   29 1
    33   20   30 1
