@<TRIPOS>MOLECULE
ZINC67278645
   49    49     0     0     0
SMALL
USER_CHARGES

@<TRIPOS>ATOM
      1 C1          0.1771    1.5090    0.1101 C.3       1 <0>        -0.1665
      2 C2          0.0009   -0.0070    0.0026 C.3       1 <0>         0.1233
      3 H1         -1.0608   -0.2521    0.0284 H         1 <0>         0.1192
      4 C3          0.5970   -0.4913   -1.2941 C.2       1 <0>         0.5199
      5 O1          1.7267   -0.9320   -1.3149 O.2       1 <0>        -0.5166
      6 N1         -0.1254   -0.4346   -2.4305 N.am      1 <0>        -0.6232
      7 C4         -1.4413    0.2065   -2.4211 C.3       1 <0>         0.1065
      8 C5         -1.4088    1.4536   -3.3108 C.3       1 <0>        -0.6301
      9 S1         -0.9158    0.9636   -4.9898 S.o2      1 <0>         2.4189
     10 O2         -0.6452    2.1384   -5.7420 O.2       1 <0>        -0.9323
     11 O3         -1.8641    0.0278   -5.4840 O.2       1 <0>        -0.9275
     12 C6          0.6526    0.0966   -4.6888 C.3       1 <0>        -0.6230
     13 C7          0.4166   -1.0096   -3.6627 C.3       1 <0>         0.1178
     14 N2          0.6799   -0.6583    1.1255 N.am      1 <0>        -0.7106
     15 C8          0.0461   -0.7983    2.3067 C.2       1 <0>         0.5175
     16 O4         -1.0863   -0.3851    2.4400 O.2       1 <0>        -0.5292
     17 C9          0.7446   -1.4683    3.4618 C.3       1 <0>         0.1207
     18 N3         -0.1487   -1.4966    4.6226 N.am      1 <0>        -0.7023
     19 C10         0.2658   -2.0520    5.7785 C.2       1 <0>         0.6556
     20 O5          1.3804   -2.5294    5.8579 O.2       1 <0>        -0.5645
     21 O6         -0.5551   -2.0780    6.8454 O.3       1 <0>        -0.3547
     22 C11        -0.0503   -2.6822    8.0379 C.3       1 <0>         0.1343
     23 C12         1.2005   -1.9318    8.4998 C.3       1 <0>        -0.1866
     24 C13        -1.1169   -2.6183    9.1329 C.3       1 <0>        -0.1413
     25 C14         0.3061   -4.1435    7.7577 C.3       1 <0>        -0.1867
     26 H2          1.2397    1.7504    0.1362 H         1 <0>         0.0720
     27 H3         -0.2837    1.9904   -0.7525 H         1 <0>         0.0748
     28 H4         -0.2992    1.8663    1.0231 H         1 <0>         0.0826
     29 H5         -2.1880   -0.4910   -2.8005 H         1 <0>         0.1064
     30 H6         -1.6979    0.4942   -1.4015 H         1 <0>         0.1155
     31 H7         -2.3991    1.9081   -3.3389 H         1 <0>         0.1548
     32 H8         -0.6882    2.1678   -2.9124 H         1 <0>         0.1396
     33 H9          1.0140   -0.3388   -5.6205 H         1 <0>         0.1518
     34 H10         1.3902    0.7996   -4.3017 H         1 <0>         0.1387
     35 H11         1.3613   -1.5082   -3.4460 H         1 <0>         0.1205
     36 H12        -0.2911   -1.7326   -4.0681 H         1 <0>         0.1009
     37 H13         1.5856   -0.9888    1.0189 H         1 <0>         0.4162
     38 H14         1.0109   -2.4880    3.1834 H         1 <0>         0.1074
     39 H15         1.6481   -0.9123    3.7121 H         1 <0>         0.1077
     40 H16        -1.0385   -1.1155    4.5593 H         1 <0>         0.4183
     41 H17         0.9466   -0.8907    8.6994 H         1 <0>         0.0599
     42 H18         1.5855   -2.3927    9.4094 H         1 <0>         0.0715
     43 H19         1.9603   -1.9773    7.7197 H         1 <0>         0.0874
     44 H20        -2.0080   -3.1530    8.8038 H         1 <0>         0.0674
     45 H21        -0.7319   -3.0792   10.0425 H         1 <0>         0.0819
     46 H22        -1.3708   -1.5773    9.3325 H         1 <0>         0.0674
     47 H23         1.0660   -4.1891    6.9776 H         1 <0>         0.0874
     48 H24         0.6911   -4.6045    8.6673 H         1 <0>         0.0715
     49 H25        -0.5850   -4.6782    7.4286 H         1 <0>         0.0600
@<TRIPOS>BOND
     1    1    2 1
     2    1   26 1
     3    1   27 1
     4    1   28 1
     5    2    3 1
     6    2    4 1
     7    2   14 1
     8    4    5 2
     9    4    6 am
    10    6   13 1
    11    6    7 1
    12    7    8 1
    13    7   29 1
    14    7   30 1
    15    8    9 1
    16    8   31 1
    17    8   32 1
    18    9   10 2
    19    9   11 2
    20    9   12 1
    21   12   13 1
    22   12   33 1
    23   12   34 1
    24   13   35 1
    25   13   36 1
    26   14   15 am
    27   14   37 1
    28   15   16 2
    29   15   17 1
    30   17   18 1
    31   17   38 1
    32   17   39 1
    33   18   19 am
    34   18   40 1
    35   19   20 2
    36   19   21 1
    37   21   22 1
    38   22   23 1
    39   22   24 1
    40   22   25 1
    41   23   41 1
    42   23   42 1
    43   23   43 1
    44   24   44 1
    45   24   45 1
    46   24   46 1
    47   25   47 1
    48   25   48 1
    49   25   49 1
