@<TRIPOS>MOLECULE
ZINC62804293
   38    40     0     0     0
SMALL
USER_CHARGES

@<TRIPOS>ATOM
      1 C1          0.2506    1.4618    0.0548 C.3       1 <0>        -0.0525
      2 N1          0.2884   -0.0067    0.0413 N.4       1 <0>        -0.5046
      3 C2          0.7366   -0.4728   -1.2777 C.3       1 <0>         0.0490
      4 H1          1.6878   -0.0144   -1.5482 H         1 <0>         0.1646
      5 C3         -0.3372   -0.1959   -2.3564 C.3       1 <0>         0.0412
      6 O1         -1.0911   -1.4197   -2.3772 O.3       1 <0>        -0.2853
      7 C4         -0.2882   -2.4491   -1.9910 C.ar      1 <0>         0.1701
      8 C5          0.8345   -1.9859   -1.3135 C.ar      1 <0>        -0.2846
      9 C6          1.7769   -2.8624   -0.8228 C.ar      1 <0>         0.0029
     10 C7          1.6186   -4.2239   -1.0069 C.ar      1 <0>        -0.2373
     11 C8          0.5076   -4.7012   -1.6873 C.ar      1 <0>         0.2034
     12 C9         -0.4433   -3.8192   -2.1784 C.ar      1 <0>        -0.1659
     13 O2          0.3503   -6.0382   -1.8734 O.3       1 <0>        -0.2574
     14 C10         1.3032   -6.8973   -1.2441 C.3       1 <0>         0.0900
     15 H2          1.5757   -6.4659   -0.2808 H         1 <0>         0.1102
     16 C11         2.5675   -6.9642   -2.1298 C.3       1 <0>        -0.6175
     17 S1          3.0703   -8.7263   -1.9073 S.o2      1 <0>         2.3812
     18 O3          3.6255   -9.2141   -3.1210 O.2       1 <0>        -0.9132
     19 O4          3.7998   -8.8581   -0.6950 O.2       1 <0>        -0.9141
     20 C12         1.3778   -9.4284   -1.6836 C.3       1 <0>        -0.6134
     21 C13         0.6517   -8.2508   -1.0030 C.3       1 <0>         0.1093
     22 H3          0.6234   -8.4369    0.0706 H         1 <0>         0.0977
     23 O5         -0.6917   -8.2031   -1.4879 O.3       1 <0>        -0.5344
     24 H4          1.2473    1.8528   -0.1493 H         1 <0>         0.1275
     25 H5         -0.4417    1.8145   -0.7097 H         1 <0>         0.1235
     26 H6         -0.0820    1.8077    1.0335 H         1 <0>         0.1315
     27 H7          0.9292   -0.3331    0.7490 H         1 <0>         0.4331
     28 H8         -0.9700    0.6425   -2.0649 H         1 <0>         0.1293
     29 H9          0.1272   -0.0120   -3.3252 H         1 <0>         0.1262
     30 H10         2.6403   -2.4862   -0.2941 H         1 <0>         0.1410
     31 H11         2.3568   -4.9126   -0.6231 H         1 <0>         0.1485
     32 H12        -1.3062   -4.1959   -2.7074 H         1 <0>         0.1533
     33 H13         2.3273   -6.7539   -3.1720 H         1 <0>         0.1593
     34 H14         3.3391   -6.2873   -1.7630 H         1 <0>         0.1514
     35 H15         0.9217   -9.6654   -2.6448 H         1 <0>         0.1574
     36 H16         1.3996  -10.3046   -1.0355 H         1 <0>         0.1551
     37 H17        -1.1809   -9.0292   -1.3728 H         1 <0>         0.3928
     38 H18        -0.6343   -0.3686    0.2302 H         1 <0>         0.4306
@<TRIPOS>BOND
     1    1    2 1
     2    1   24 1
     3    1   25 1
     4    1   26 1
     5    2    3 1
     6    2   27 1
     7    2   38 1
     8    3    4 1
     9    3    8 1
    10    3    5 1
    11    5    6 1
    12    5   28 1
    13    5   29 1
    14    6    7 1
    15    7   12 ar
    16    7    8 ar
    17    8    9 ar
    18    9   10 ar
    19    9   30 1
    20   10   11 ar
    21   10   31 1
    22   11   12 ar
    23   11   13 1
    24   12   32 1
    25   13   14 1
    26   14   15 1
    27   14   21 1
    28   14   16 1
    29   16   17 1
    30   16   33 1
    31   16   34 1
    32   17   18 2
    33   17   19 2
    34   17   20 1
    35   20   21 1
    36   20   35 1
    37   20   36 1
    38   21   22 1
    39   21   23 1
    40   23   37 1
