@<TRIPOS>MOLECULE
ZINC39545699
   48    51     0     0     0
SMALL
NO_CHARGES

@<TRIPOS>ATOM
      1 C1         -0.2754    0.3304   -0.6736 C.3       1 <0>        -0.0127
      2 O1         -0.0634   -0.9978   -0.1909 O.3       1 <0>        -0.1645
      3 N1          0.7313   -1.0654    0.9791 N.am      1 <0>        -0.7372
      4 C2          0.1547   -0.9571    2.1925 C.2       1 <0>         0.4858
      5 O2          0.8434   -0.9213    3.1902 O.2       1 <0>        -0.4676
      6 C3         -1.3458   -0.8806    2.3097 C.3       1 <0>        -0.0151
      7 H1         -1.8199   -1.4228    1.4915 H         1 <0>         0.1685
      8 C4         -1.8119    0.5880    2.3258 C.3       1 <0>        -0.1047
      9 C5         -2.5195    0.7356    3.6537 C.2       1 <0>         0.0719
     10 C6         -2.4758   -0.4023    4.2991 C.2       1 <0>         0.1408
     11 N2         -3.0604   -0.6673    5.5569 N.pl3     1 <0>        -0.6602
     12 C7         -3.5968   -1.9583    5.6981 C.ar      1 <0>         0.1858
     13 C8         -4.2962   -2.2926    6.8489 C.ar      1 <0>        -0.1595
     14 C9         -4.8154   -3.5647    6.9919 C.ar      1 <0>        -0.0643
     15 C10        -4.6343   -4.4983    5.9875 C.ar      1 <0>        -0.1481
     16 C11        -3.9417   -4.1641    4.8401 C.ar      1 <0>        -0.0576
     17 C12        -3.4215   -2.8896    4.6843 C.ar      1 <0>        -0.1832
     18 C13        -2.6937   -2.5488    3.4107 C.3       1 <0>         0.0301
     19 N3         -1.7896   -1.4143    3.6076 N.4       1 <0>        -0.3133
     20 F1         -3.1054    1.8664    4.1043 F         1 <0>        -0.0908
     21 S1          2.3690   -1.2774    0.8566 S.o2      1 <0>         2.4724
     22 O3          2.7971   -1.8522    2.0836 O.2       1 <0>        -0.9901
     23 O4          2.6052   -1.8991   -0.3992 O.2       1 <0>        -0.9859
     24 O5          2.9977    0.1067    0.7819 O.3       1 <0>        -0.6795
     25 C14         3.0268    0.7654    1.9702 C.ar      1 <0>         0.1167
     26 C15         1.9626    1.5738    2.3427 C.ar      1 <0>        -0.1472
     27 C16         1.9944    2.2420    3.5514 C.ar      1 <0>        -0.0975
     28 C17         3.0857    2.1060    4.3894 C.ar      1 <0>        -0.1332
     29 C18         4.1478    1.3013    4.0202 C.ar      1 <0>        -0.0948
     30 C19         4.1181    0.6261    2.8153 C.ar      1 <0>        -0.1134
     31 H2          0.6737    0.7528   -1.0036 H         1 <0>         0.0578
     32 H3         -0.9728    0.3057   -1.5109 H         1 <0>         0.1056
     33 H4         -0.6887    0.9458    0.1255 H         1 <0>         0.0452
     34 H5         -0.9559    1.2607    2.2725 H         1 <0>         0.1235
     35 H6         -2.5006    0.7790    1.5029 H         1 <0>         0.1347
     36 H7         -4.4346   -1.5602    7.6305 H         1 <0>         0.1335
     37 H8         -5.3609   -3.8297    7.8856 H         1 <0>         0.1346
     38 H9         -5.0365   -5.4942    6.1011 H         1 <0>         0.1324
     39 H10        -3.8047   -4.8997    4.0613 H         1 <0>         0.1354
     40 H11        -2.1149   -3.4138    3.0870 H         1 <0>         0.1354
     41 H12        -3.4214   -2.2972    2.6392 H         1 <0>         0.1303
     42 H13         1.1102    1.6809    1.6882 H         1 <0>         0.1159
     43 H14         1.1662    2.8714    3.8419 H         1 <0>         0.1223
     44 H15         3.1088    2.6295    5.3337 H         1 <0>         0.1228
     45 H16         4.9993    1.1970    4.6763 H         1 <0>         0.1273
     46 H17         4.9459   -0.0058    2.5294 H         1 <0>         0.1263
     47 H18        -3.0897   -0.0088    6.2685 H         1 <0>         0.4365
     48 H19        -0.9889   -1.7113    4.1448 H         1 <0>         0.4287
@<TRIPOS>BOND
     1    1    2 1
     2    1   31 1
     3    1   32 1
     4    1   33 1
     5    2    3 1
     6    3    4 am
     7    3   21 1
     8    4    5 2
     9    4    6 1
    10    6    7 1
    11    6   19 1
    12    6    8 1
    13    8    9 1
    14    8   34 1
    15    8   35 1
    16    9   10 2
    17    9   20 1
    18   10   19 1
    19   10   11 1
    20   11   12 1
    21   11   47 1
    22   12   17 ar
    23   12   13 ar
    24   13   14 ar
    25   13   36 1
    26   14   15 ar
    27   14   37 1
    28   15   16 ar
    29   15   38 1
    30   16   17 ar
    31   16   39 1
    32   17   18 1
    33   18   19 1
    34   18   40 1
    35   18   41 1
    36   19   48 1
    37   21   22 2
    38   21   23 2
    39   21   24 1
    40   24   25 1
    41   25   30 ar
    42   25   26 ar
    43   26   27 ar
    44   26   42 1
    45   27   28 ar
    46   27   43 1
    47   28   29 ar
    48   28   44 1
    49   29   30 ar
    50   29   45 1
    51   30   46 1
