@<TRIPOS>MOLECULE
ZINC05249919
   43    44     0     0     0
SMALL
USER_CHARGES

@<TRIPOS>ATOM
      1 C1         -0.1237    1.3790    0.2779 C.3       1 <0>        -0.1241
      2 C2         -0.8664    1.5108   -1.0267 C.2       1 <0>         0.2851
      3 N1         -0.1734    1.6571   -2.1959 N.pl3     1 <0>        -0.5023
      4 N2         -0.8639    1.7797   -3.4087 N.am      1 <0>        -0.5251
      5 C3         -0.1807    1.9239   -4.5615 C.2       1 <0>         0.5786
      6 O1          1.0350    1.9478   -4.5489 O.2       1 <0>        -0.5484
      7 C4         -0.9073    2.0529   -5.8379 C.ar      1 <0>        -0.2330
      8 C5         -2.2999    2.1678   -5.8456 C.ar      1 <0>        -0.0348
      9 C6         -2.9728    2.2885   -7.0414 C.ar      1 <0>        -0.1882
     10 C7         -2.2760    2.2966   -8.2396 C.ar      1 <0>        -0.0323
     11 C8         -0.9011    2.1835   -8.2489 C.ar      1 <0>        -0.2098
     12 C9         -0.2041    2.0667   -7.0524 C.ar      1 <0>         0.2890
     13 N3          1.1804    1.9586   -7.0587 N.pl3     1 <0>        -0.8537
     14 C10        -2.2151    1.4844   -1.0408 C.2       1 <0>        -0.4000
     15 C11        -2.9281    1.1544    0.1349 C.2       1 <0>         0.5792
     16 O2         -2.3256    0.9232    1.1678 O.2       1 <0>        -0.5456
     17 N4         -4.2744    1.0956    0.1125 N.am      1 <0>        -0.6771
     18 C12        -4.9852    0.8898    1.2991 C.ar      1 <0>         0.1651
     19 C13        -4.5078    1.4097    2.4956 C.ar      1 <0>        -0.0726
     20 C14        -5.2123    1.2050    3.6654 C.ar      1 <0>        -0.0954
     21 C15        -6.3919    0.4833    3.6469 C.ar      1 <0>        -0.0751
     22 C16        -6.8696   -0.0359    2.4578 C.ar      1 <0>        -0.0275
     23 C17        -6.1727    0.1700    1.2831 C.ar      1 <0>        -0.0939
     24 N5         -8.1320   -0.8086    2.4426 N.pl3     1 <0>         0.0335
     25 O3         -8.7449   -0.9853    3.4697 O.2       1 <0>        -0.1546
     26 O4         -8.5503   -1.2629    1.4033 O.3       1 <0>        -0.1588
     27 H1         -0.0232    0.3243    0.5338 H         1 <0>         0.0981
     28 H2          0.8661    1.8248    0.1792 H         1 <0>         0.0663
     29 H3         -0.6767    1.8927    1.0643 H         1 <0>         0.1201
     30 H4         -1.8337    1.7606   -3.4188 H         1 <0>         0.4279
     31 H5         -2.8480    2.1618   -4.9150 H         1 <0>         0.1210
     32 H6         -4.0492    2.3769   -7.0455 H         1 <0>         0.1289
     33 H7         -2.8128    2.3916   -9.1719 H         1 <0>         0.1301
     34 H8         -0.3656    2.1899   -9.1867 H         1 <0>         0.1310
     35 H9          1.6712    1.9646   -6.2220 H         1 <0>         0.4172
     36 H10         1.6567    1.8771   -7.8998 H         1 <0>         0.3972
     37 H11        -2.7503    1.7153   -1.9500 H         1 <0>         0.1160
     38 H12         0.7963    1.6762   -2.1858 H         1 <0>         0.4396
     39 H13        -4.7503    1.1961   -0.7267 H         1 <0>         0.4136
     40 H14        -3.5865    1.9730    2.5108 H         1 <0>         0.1543
     41 H15        -4.8415    1.6087    4.5960 H         1 <0>         0.1515
     42 H16        -6.9410    0.3246    4.5632 H         1 <0>         0.1542
     43 H17        -6.5486   -0.2320    0.3539 H         1 <0>         0.1544
@<TRIPOS>BOND
     1    1   27 1
     2    1   28 1
     3    1   29 1
     4    1    2 1
     5    2   14 2
     6    2    3 1
     7    3    4 1
     8    3   38 1
     9    4    5 am
    10    4   30 1
    11    5    6 2
    12    5    7 1
    13    7   12 ar
    14    7    8 ar
    15    8    9 ar
    16    8   31 1
    17    9   10 ar
    18    9   32 1
    19   10   11 ar
    20   10   33 1
    21   11   12 ar
    22   11   34 1
    23   12   13 1
    24   13   35 1
    25   13   36 1
    26   14   15 1
    27   14   37 1
    28   15   16 2
    29   15   17 am
    30   17   18 1
    31   17   39 1
    32   18   23 ar
    33   18   19 ar
    34   19   20 ar
    35   19   40 1
    36   20   21 ar
    37   20   41 1
    38   21   22 ar
    39   21   42 1
    40   22   23 ar
    41   22   24 1
    42   23   43 1
    43   24   25 2
    44   24   26 1
