@<TRIPOS>MOLECULE
ZINC39095137
   45    47     0     0     0
SMALL
USER_CHARGES

@<TRIPOS>ATOM
      1 C1          1.0026    1.5006    0.0886 C.3       1 <0>         0.0286
      2 O1          1.1390    0.0786    0.0539 O.3       1 <0>        -0.3279
      3 C2          0.5759   -0.6122    1.0576 C.2       1 <0>         0.4823
      4 C3          0.6786   -2.1154    1.0883 C.3       1 <0>        -0.1357
      5 C4          1.5357   -2.5438    2.2812 C.3       1 <0>         0.1890
      6 H1          1.0508   -2.2386    3.2084 H         1 <0>         0.1319
      7 C5          2.8961   -1.8985    2.1849 C.ar      1 <0>        -0.0972
      8 C6          3.1221   -0.6475    2.7140 C.ar      1 <0>        -0.1028
      9 C7          4.3739   -0.0664    2.6027 C.ar      1 <0>        -0.0733
     10 C8          5.4011   -0.7354    1.9605 C.ar      1 <0>        -0.0999
     11 C9          5.1886   -1.9920    1.4309 C.ar      1 <0>        -0.0549
     12 C10         3.9316   -2.5861    1.5465 C.ar      1 <0>        -0.1178
     13 C11         3.6881   -3.9425    1.0230 C.2       1 <0>         0.2063
     14 N1          2.6157   -4.5854    1.3718 N.2       1 <0>        -0.2688
     15 N2          1.7029   -4.0025    2.2693 N.pl3     1 <0>        -0.4584
     16 C12         0.9774   -4.7861    3.1278 C.cat     1 <0>         0.7392
     17 N3          0.1049   -4.2860    3.9881 N.pl3     1 <0>        -0.6604
     18 C13        -0.5012   -5.3839    4.7574 C.3       1 <0>         0.0792
     19 C14         0.1823   -6.6427    4.1862 C.3       1 <0>         0.0761
     20 N4          1.0884   -6.1044    3.1596 N.pl3     1 <0>        -0.6526
     21 C15        -0.6996   -2.7105    1.2206 C.2       1 <0>         0.3956
     22 O2         -1.1636   -2.9217    2.3155 O.2       1 <0>        -0.3705
     23 C16        -1.4900   -3.0385    0.0002 C.2       1 <0>         0.4239
     24 O3         -1.0241   -2.8265   -1.0992 O.2       1 <0>        -0.4451
     25 O4         -2.7209   -3.5700    0.1183 O.3       1 <0>        -0.3234
     26 C17        -3.4216   -3.8594   -1.0930 C.3       1 <0>         0.0257
     27 O5         -0.0133   -0.0289    1.9365 O.2       1 <0>        -0.4744
     28 H2          1.4566    1.8871    1.0010 H         1 <0>         0.0704
     29 H3          1.5017    1.9347   -0.7778 H         1 <0>         0.1170
     30 H4         -0.0548    1.7648    0.0688 H         1 <0>         0.0704
     31 H5          2.3238   -0.1201    3.2149 H         1 <0>         0.1383
     32 H6          4.5496    0.9145    3.0190 H         1 <0>         0.1436
     33 H7          6.3728   -0.2722    1.8731 H         1 <0>         0.1455
     34 H8          5.9912   -2.5128    0.9300 H         1 <0>         0.1492
     35 H9          4.3995   -4.3998    0.3512 H         1 <0>         0.2166
     36 H10        -0.2809   -5.2759    5.8194 H         1 <0>         0.1247
     37 H11        -1.5775   -5.4218    4.5895 H         1 <0>         0.1258
     38 H12         0.7430   -7.1614    4.9638 H         1 <0>         0.1243
     39 H13        -0.5537   -7.3074    3.7338 H         1 <0>         0.1238
     40 H14         1.6759   -6.6323    2.5964 H         1 <0>         0.4593
     41 H15        -4.3978   -4.2824   -0.8559 H         1 <0>         0.1188
     42 H16        -3.5528   -2.9410   -1.6652 H         1 <0>         0.0733
     43 H17        -2.8486   -4.5757   -1.6819 H         1 <0>         0.0721
     44 H18        -0.1018   -3.3443    4.0951 H         1 <0>         0.4545
     45 H19         1.1392   -2.4671    0.1651 H         1 <0>         0.1576
@<TRIPOS>BOND
     1    1    2 1
     2    1   28 1
     3    1   29 1
     4    1   30 1
     5    2    3 1
     6    3    4 1
     7    3   27 2
     8    4    5 1
     9    4   21 1
    10    4   45 1
    11    5    6 1
    12    5   15 1
    13    5    7 1
    14    7   12 ar
    15    7    8 ar
    16    8    9 ar
    17    8   31 1
    18    9   10 ar
    19    9   32 1
    20   10   11 ar
    21   10   33 1
    22   11   12 ar
    23   11   34 1
    24   12   13 1
    25   13   14 2
    26   13   35 1
    27   14   15 1
    28   15   16 1
    29   16   20 1
    30   16   17 2
    31   17   18 1
    32   17   44 1
    33   18   19 1
    34   18   36 1
    35   18   37 1
    36   19   20 1
    37   19   38 1
    38   19   39 1
    39   20   40 1
    40   21   22 2
    41   21   23 1
    42   23   24 2
    43   23   25 1
    44   25   26 1
    45   26   41 1
    46   26   42 1
    47   26   43 1
