@<TRIPOS>MOLECULE
ZINC64540794
   59    62     0     0     0
SMALL
USER_CHARGES

@<TRIPOS>ATOM
      1 C1         -0.0173    1.4248    0.0099 C.3       1 <0>         0.0075
      2 O1          0.0021   -0.0041    0.0020 O.3       1 <0>        -0.2805
      3 C2          0.6244   -0.6170    1.0392 C.ar      1 <0>         0.3016
      4 C3          1.2001    0.1778    2.0487 C.ar      1 <0>        -0.2109
      5 C4          1.8336   -0.3712    3.1073 C.ar      1 <0>         0.0269
      6 C5          1.9228   -1.8340    3.2061 C.ar      1 <0>        -0.1592
      7 C6          2.4792   -2.6550    4.1236 C.2       1 <0>         0.0245
      8 C7          2.2236   -4.0640    3.6375 C.3       1 <0>         0.0739
      9 H1          3.1686   -4.5782    3.4624 H         1 <0>         0.1925
     10 N1          1.4815   -3.9276    2.3793 N.pl3     1 <0>        -0.5691
     11 C8          1.3095   -2.6493    2.1326 C.ar      1 <0>         0.3562
     12 C9          0.6638   -1.9736    1.0673 C.ar      1 <0>        -0.2709
     13 C10         1.4007   -4.8207    4.6481 C.2       1 <0>         0.5220
     14 O2          0.3071   -5.2469    4.3427 O.2       1 <0>        -0.5027
     15 N2          1.8801   -5.0239    5.8912 N.am      1 <0>        -0.5909
     16 C11         3.2005   -4.5084    6.2779 C.3       1 <0>         0.0891
     17 C12         4.0341   -5.6625    6.8434 C.3       1 <0>        -0.1341
     18 C13         3.2629   -6.3332    7.9825 C.3       1 <0>        -0.0732
     19 C14         1.9492   -6.9047    7.4444 C.3       1 <0>        -0.1362
     20 C15         1.0896   -5.7598    6.8874 C.3       1 <0>         0.1122
     21 C16         4.1071   -7.4645    8.5727 C.3       1 <0>        -0.1387
     22 C17         3.4020   -8.0446    9.7717 C.2       1 <0>         0.5111
     23 O3          2.3298   -7.5971   10.1198 O.2       1 <0>        -0.5403
     24 N3          3.9628   -9.0605   10.4570 N.am      1 <0>        -0.7236
     25 C18         3.2774   -9.6244   11.6225 C.3       1 <0>         0.1095
     26 C19         4.1215  -10.7558   12.2127 C.3       1 <0>         0.0669
     27 H2          4.3507  -11.4883   11.4388 H         1 <0>         0.0879
     28 C20         3.3531  -11.4355   13.3664 C.3       1 <0>        -0.1490
     29 C21         4.4806  -11.7039   14.4002 C.3       1 <0>        -0.1569
     30 C22         5.3907  -10.4713   14.1695 C.3       1 <0>         0.0488
     31 O4          5.3366  -10.2241   12.7536 O.3       1 <0>        -0.3779
     32 H3          1.0053    1.8021    0.0021 H         1 <0>         0.0771
     33 H4         -0.5445    1.7859   -0.8732 H         1 <0>         0.1247
     34 H5         -0.5275    1.7763    0.9067 H         1 <0>         0.0770
     35 H6          1.1336    1.2532    1.9744 H         1 <0>         0.1683
     36 H7          2.2691    0.2566    3.8706 H         1 <0>         0.1739
     37 H8          3.0014   -2.3638    5.0230 H         1 <0>         0.2134
     38 H9          0.2038   -2.5409    0.2717 H         1 <0>         0.1695
     39 H10         3.7000   -4.0908    5.4037 H         1 <0>         0.0822
     40 H11         3.0829   -3.7359    7.0379 H         1 <0>         0.0914
     41 H12         4.2274   -6.3914    6.0564 H         1 <0>         0.0741
     42 H13         4.9802   -5.2763    7.2225 H         1 <0>         0.0893
     43 H14         3.0484   -5.5979    8.7581 H         1 <0>         0.0872
     44 H15         2.1621   -7.6219    6.6517 H         1 <0>         0.0649
     45 H16         1.4114   -7.4025    8.2512 H         1 <0>         0.1044
     46 H17         0.8034   -5.0872    7.6960 H         1 <0>         0.0844
     47 H18         0.1959   -6.1681    6.4155 H         1 <0>         0.0988
     48 H19         4.2476   -8.2425    7.8223 H         1 <0>         0.0950
     49 H20         5.0780   -7.0731    8.8764 H         1 <0>         0.0989
     50 H21         4.8203   -9.4184   10.1786 H         1 <0>         0.4050
     51 H22         3.1368   -8.8464   12.3730 H         1 <0>         0.0735
     52 H23         2.3065  -10.0159   11.3189 H         1 <0>         0.0789
     53 H24         2.5999  -10.7645   13.7792 H         1 <0>         0.0828
     54 H25         2.9013  -12.3701   13.0338 H         1 <0>         0.0881
     55 H26         4.0867  -11.7167   15.4165 H         1 <0>         0.0879
     56 H27         5.0088  -12.6301   14.1739 H         1 <0>         0.0815
     57 H28         5.0090   -9.6110   14.7193 H         1 <0>         0.0627
     58 H29         6.4131  -10.6934   14.4751 H         1 <0>         0.0892
     59 H30         1.1703   -4.6587    1.8230 H         1 <0>         0.4595
@<TRIPOS>BOND
     1    1    2 1
     2    1   32 1
     3    1   33 1
     4    1   34 1
     5    2    3 1
     6    3   12 ar
     7    3    4 ar
     8    4    5 ar
     9    4   35 1
    10    5    6 ar
    11    5   36 1
    12    6   11 ar
    13    6    7 2
    14    7    8 1
    15    7   37 1
    16    8    9 1
    17    8   10 1
    18    8   13 1
    19   10   11 2
    20   10   59 1
    21   11   12 ar
    22   12   38 1
    23   13   14 2
    24   13   15 am
    25   15   20 1
    26   15   16 1
    27   16   17 1
    28   16   39 1
    29   16   40 1
    30   17   18 1
    31   17   41 1
    32   17   42 1
    33   18   19 1
    34   18   21 1
    35   18   43 1
    36   19   20 1
    37   19   44 1
    38   19   45 1
    39   20   46 1
    40   20   47 1
    41   21   22 1
    42   21   48 1
    43   21   49 1
    44   22   23 2
    45   22   24 am
    46   24   25 1
    47   24   50 1
    48   25   26 1
    49   25   51 1
    50   25   52 1
    51   26   27 1
    52   26   31 1
    53   26   28 1
    54   28   29 1
    55   28   53 1
    56   28   54 1
    57   29   30 1
    58   29   55 1
    59   29   56 1
    60   30   31 1
    61   30   57 1
    62   30   58 1
