@<TRIPOS>MOLECULE
ZINC67623312
   51    53     0     0     0
SMALL
USER_CHARGES

@<TRIPOS>ATOM
      1 C1         -0.0193    1.8056    0.0183 C.3       1 <0>        -0.6749
      2 S1          0.0042   -0.0082    0.0042 S.o2      1 <0>         2.6106
      3 O1          0.8380   -0.4950    1.0469 O.2       1 <0>        -0.9528
      4 O2         -1.3130   -0.5135   -0.1656 O.2       1 <0>        -0.9503
      5 N1          0.7954   -0.4127   -1.3932 N.pl3     1 <0>        -0.9949
      6 C2          0.0524   -0.5991   -2.6470 C.3       1 <0>         0.1165
      7 C3          0.6761    0.2909   -3.7267 C.3       1 <0>        -0.1339
      8 C4          2.1723   -0.0135   -3.8315 C.3       1 <0>        -0.1288
      9 C5          2.8527    0.2979   -2.4964 C.3       1 <0>         0.1482
     10 H1          2.6918    1.3454   -2.2418 H         1 <0>         0.0920
     11 C6          2.2543   -0.5861   -1.4041 C.3       1 <0>         0.1149
     12 N2          4.2899    0.0368   -2.6075 N.am      1 <0>        -0.7421
     13 C7          5.1112    0.9855   -3.0994 C.2       1 <0>         0.7154
     14 O3          4.6496    2.0219   -3.5367 O.2       1 <0>        -0.5838
     15 N3          6.4440    0.7854   -3.1066 N.am      1 <0>        -0.6311
     16 C8          7.3754    1.8447   -3.5312 C.3       1 <0>         0.1310
     17 C9          8.2674    2.1951   -2.3375 C.3       1 <0>        -0.0979
     18 C10         8.7674    0.9464   -1.6738 C.2       1 <0>        -0.0633
     19 C11         8.2229   -0.2378   -1.8182 C.2       1 <0>        -0.1656
     20 C12         7.0268   -0.4966   -2.6852 C.3       1 <0>         0.1455
     21 C13         9.9532    1.0579   -0.7991 C.ar      1 <0>        -0.0676
     22 C14         9.8855    1.8020    0.3798 C.ar      1 <0>        -0.0890
     23 C15        10.9939    1.9038    1.1932 C.ar      1 <0>        -0.1433
     24 C16        12.1766    1.2672    0.8409 C.ar      1 <0>         0.1064
     25 C17        12.2481    0.5264   -0.3314 C.ar      1 <0>        -0.1437
     26 C18        11.1422    0.4148   -1.1469 C.ar      1 <0>        -0.0901
     27 O4         13.2669    1.3698    1.6451 O.3       1 <0>        -0.5000
     28 H2          1.0035    2.1823    0.0106 H         1 <0>         0.1274
     29 H3         -0.5471    2.1690   -0.8634 H         1 <0>         0.1289
     30 H4         -0.5285    2.1553    0.9164 H         1 <0>         0.1297
     31 H5          0.1114   -1.6430   -2.9549 H         1 <0>         0.0782
     32 H6         -0.9903   -0.3179   -2.4991 H         1 <0>         0.0952
     33 H7          0.1962    0.0911   -4.6847 H         1 <0>         0.0824
     34 H8          0.5358    1.3385   -3.4604 H         1 <0>         0.0699
     35 H9          2.3124   -1.0670   -4.0734 H         1 <0>         0.0673
     36 H10         2.6138    0.6009   -4.6161 H         1 <0>         0.0752
     37 H11         2.6640   -0.2963   -0.4365 H         1 <0>         0.0976
     38 H12         2.4969   -1.6289   -1.6085 H         1 <0>         0.0808
     39 H13         4.6505   -0.8189   -2.3270 H         1 <0>         0.3967
     40 H14         7.9893    1.4862   -4.3575 H         1 <0>         0.0735
     41 H15         6.8143    2.7256   -3.8432 H         1 <0>         0.1005
     42 H16         9.1167    2.7846   -2.6828 H         1 <0>         0.0876
     43 H17         7.6942    2.7806   -1.6187 H         1 <0>         0.0813
     44 H18         8.6567   -1.0694   -1.2828 H         1 <0>         0.1223
     45 H19         6.2865   -1.0661   -2.1233 H         1 <0>         0.0866
     46 H20         7.3336   -1.0636   -3.5641 H         1 <0>         0.0830
     47 H21         8.9661    2.2977    0.6543 H         1 <0>         0.1269
     48 H22        10.9424    2.4796    2.1054 H         1 <0>         0.1304
     49 H23        13.1698    0.0330   -0.6023 H         1 <0>         0.1306
     50 H24        11.1971   -0.1655   -2.0561 H         1 <0>         0.1285
     51 H25        13.3255    0.6782    2.3184 H         1 <0>         0.3923
@<TRIPOS>BOND
     1    1    2 1
     2    1   28 1
     3    1   29 1
     4    1   30 1
     5    2    3 2
     6    2    4 2
     7    2    5 1
     8    5   11 1
     9    5    6 1
    10    6    7 1
    11    6   31 1
    12    6   32 1
    13    7    8 1
    14    7   33 1
    15    7   34 1
    16    8    9 1
    17    8   35 1
    18    8   36 1
    19    9   10 1
    20    9   11 1
    21    9   12 1
    22   11   37 1
    23   11   38 1
    24   12   13 am
    25   12   39 1
    26   13   14 2
    27   13   15 am
    28   15   20 1
    29   15   16 1
    30   16   17 1
    31   16   40 1
    32   16   41 1
    33   17   18 1
    34   17   42 1
    35   17   43 1
    36   18   19 2
    37   18   21 1
    38   19   20 1
    39   19   44 1
    40   20   45 1
    41   20   46 1
    42   21   26 ar
    43   21   22 ar
    44   22   23 ar
    45   22   47 1
    46   23   24 ar
    47   23   48 1
    48   24   25 ar
    49   24   27 1
    50   25   26 ar
    51   25   49 1
    52   26   50 1
    53   27   51 1
