@<TRIPOS>MOLECULE
ZINC49741094
   48    52     0     0     0
SMALL
USER_CHARGES

@<TRIPOS>ATOM
      1 C1         -2.2502   -1.3767    0.4450 C.ar      1 <0>        -0.0935
      2 C2         -1.5702   -0.1971    0.2062 C.ar      1 <0>        -0.0937
      3 C3         -0.1966   -0.2032    0.0202 C.ar      1 <0>        -0.0428
      4 C4          0.4987   -1.4005    0.0748 C.ar      1 <0>        -0.1379
      5 C5         -0.1946   -2.6032    0.3189 C.ar      1 <0>        -0.1376
      6 C6         -1.5679   -2.5819    0.5023 C.ar      1 <0>        -0.0429
      7 C7          0.8296   -3.6690    0.3119 C.2       1 <0>         0.5817
      8 O1          0.6221   -4.8527    0.4870 O.2       1 <0>        -0.4572
      9 N1          2.0301   -3.1084    0.0787 N.am      1 <0>        -0.5641
     10 C8          1.9208   -1.7761   -0.0721 C.2       1 <0>         0.5820
     11 O2          2.8371   -1.0101   -0.2926 O.2       1 <0>        -0.4580
     12 C9          3.2905   -3.8509   -0.0002 C.3       1 <0>         0.0947
     13 C10         3.5326   -4.2798   -1.4244 C.2       1 <0>         0.5016
     14 O3          2.7311   -3.9934   -2.2886 O.2       1 <0>        -0.5059
     15 N2          4.6396   -4.9816   -1.7379 N.am      1 <0>        -0.6645
     16 C11         4.8175   -5.4640   -3.0409 C.ar      1 <0>         0.1230
     17 C12         4.3726   -4.7209   -4.1268 C.ar      1 <0>        -0.0813
     18 C13         4.5452   -5.1941   -5.4100 C.ar      1 <0>        -0.1178
     19 C14         5.1681   -6.4211   -5.6286 C.ar      1 <0>         0.1325
     20 C15         5.6124   -7.1581   -4.5353 C.ar      1 <0>        -0.1096
     21 C16         5.4449   -6.6854   -3.2534 C.ar      1 <0>        -0.0826
     22 C17         6.2310   -8.4068   -5.1017 C.3       1 <0>        -0.0546
     23 C18         5.5169   -9.6625   -4.5824 C.3       1 <0>        -0.0958
     24 C19         6.6519  -10.7100   -4.4445 C.3       1 <0>        -0.1258
     25 C20         7.8473   -9.8595   -3.9458 C.3       1 <0>        -0.1215
     26 C21         7.7065   -8.5236   -4.7084 C.3       1 <0>        -0.0986
     27 C22         6.0742   -8.2742   -6.5938 C.2       1 <0>         0.5395
     28 O4          6.4387   -9.0705   -7.4329 O.2       1 <0>        -0.4916
     29 N3          5.4519   -7.1014   -6.8166 N.am      1 <0>        -0.6619
     30 H1         -3.3199   -1.3585    0.5924 H         1 <0>         0.1445
     31 H2         -2.1129    0.7356    0.1638 H         1 <0>         0.1446
     32 H3          0.3294    0.7213   -0.1668 H         1 <0>         0.1439
     33 H4         -2.1043   -3.5003    0.6896 H         1 <0>         0.1438
     34 H5          4.1095   -3.2127    0.3313 H         1 <0>         0.1335
     35 H6          3.2341   -4.7315    0.6398 H         1 <0>         0.1338
     36 H7          5.3133   -5.1527   -1.0613 H         1 <0>         0.4151
     37 H8          3.8892   -3.7688   -3.9651 H         1 <0>         0.1466
     38 H9          4.1957   -4.6115   -6.2495 H         1 <0>         0.1321
     39 H10         5.7968   -7.2656   -2.4132 H         1 <0>         0.1345
     40 H11         5.0573   -9.4674   -3.6135 H         1 <0>         0.0824
     41 H12         4.7694  -10.0012   -5.2997 H         1 <0>         0.0712
     42 H13         6.3873  -11.4714   -3.7109 H         1 <0>         0.0738
     43 H14         6.8773  -11.1641   -5.4095 H         1 <0>         0.0753
     44 H15         7.7758   -9.6944   -2.8708 H         1 <0>         0.0701
     45 H16         8.7910  -10.3441   -4.1963 H         1 <0>         0.0725
     46 H17         8.3322   -8.5342   -5.6009 H         1 <0>         0.0738
     47 H18         7.9888   -7.6922   -4.0625 H         1 <0>         0.0784
     48 H19         5.2266   -6.7671   -7.6989 H         1 <0>         0.4141
@<TRIPOS>BOND
     1    1    6 ar
     2    1    2 ar
     3    1   30 1
     4    2    3 ar
     5    2   31 1
     6    3    4 ar
     7    3   32 1
     8    4   10 1
     9    4    5 ar
    10    5    6 ar
    11    5    7 1
    12    6   33 1
    13    7    8 2
    14    7    9 am
    15    9   10 am
    16    9   12 1
    17   10   11 2
    18   12   13 1
    19   12   34 1
    20   12   35 1
    21   13   14 2
    22   13   15 am
    23   15   16 1
    24   15   36 1
    25   16   21 ar
    26   16   17 ar
    27   17   18 ar
    28   17   37 1
    29   18   19 ar
    30   18   38 1
    31   19   29 1
    32   19   20 ar
    33   20   21 ar
    34   20   22 1
    35   21   39 1
    36   22   26 1
    37   22   23 1
    38   22   27 1
    39   23   24 1
    40   23   40 1
    41   23   41 1
    42   24   25 1
    43   24   42 1
    44   24   43 1
    45   25   26 1
    46   25   44 1
    47   25   45 1
    48   26   46 1
    49   26   47 1
    50   27   28 2
    51   27   29 am
    52   29   48 1
