@<TRIPOS>MOLECULE
ZINC63194245
   60    64     0     0     0
SMALL
USER_CHARGES

@<TRIPOS>ATOM
      1 C1         -0.0354    1.5234   -0.0040 C.3       1 <0>        -0.1760
      2 C2         -0.0049   -0.0063   -0.0035 C.3       1 <0>         0.1345
      3 H1          0.4920   -0.3770   -0.9001 H         1 <0>         0.1067
      4 C3         -1.4342   -0.5736    0.0938 C.3       1 <0>        -0.0803
      5 C4         -1.4206   -1.3602    1.3868 C.2       1 <0>        -0.3044
      6 C5         -0.1924   -1.2584    1.9332 C.2       1 <0>         0.2367
      7 N1          0.6702   -0.5062    1.2017 N.pl3     1 <0>        -0.5821
      8 C6          1.9952   -0.2461    1.5416 C.ar      1 <0>         0.3918
      9 C7          3.0100   -1.0382    1.0151 C.ar      1 <0>        -0.1056
     10 C8          4.3221   -0.7684    1.3608 C.ar      1 <0>         0.0189
     11 C9          4.5756    0.2885    2.2248 C.ar      1 <0>        -0.1166
     12 C10         3.5191    1.0336    2.7099 C.ar      1 <0>         0.1491
     13 N2          2.2780    0.7563    2.3588 N.ar      1 <0>        -0.4562
     14 C11         0.1887   -1.9179    3.2335 C.3       1 <0>        -0.1203
     15 C12        -2.5019   -2.0730    1.9252 C.2       1 <0>         0.4108
     16 O1         -2.3477   -2.7481    2.9239 O.2       1 <0>        -0.4644
     17 C13        -3.8549   -2.0017    1.2653 C.3       1 <0>         0.0763
     18 N3         -4.8069   -2.8269    2.0130 N.am      1 <0>        -0.5629
     19 C14        -5.0319   -4.1329    1.7684 C.2       1 <0>         0.5343
     20 O2         -4.5048   -4.8206    0.9204 O.2       1 <0>        -0.4428
     21 C15        -6.0806   -4.5636    2.7747 C.3       1 <0>         0.0996
     22 H2         -6.9828   -4.9040    2.2665 H         1 <0>         0.1419
     23 N4         -6.3499   -3.3348    3.5413 N.am      1 <0>        -0.7314
     24 C16        -5.5562   -2.3784    3.0266 C.2       1 <0>         0.7102
     25 O3         -5.5256   -1.2339    3.4346 O.2       1 <0>        -0.5203
     26 C17        -5.5318   -5.6620    3.6874 C.3       1 <0>        -0.0896
     27 C18        -6.6291   -6.1564    4.5943 C.2       1 <0>         0.0506
     28 C19        -7.4275   -7.2298    4.3945 C.ar      1 <0>        -0.1542
     29 C20        -7.5108   -8.2196    3.3138 C.ar      1 <0>        -0.0201
     30 C21        -8.4358   -9.2028    3.3948 C.ar      1 <0>        -0.1429
     31 C22        -9.3151   -9.2998    4.4820 C.ar      1 <0>         0.0582
     32 C23        -9.2994   -8.4282    5.5126 C.ar      1 <0>        -0.2092
     33 C24        -8.3670   -7.3545    5.5317 C.ar      1 <0>         0.3302
     34 N5         -8.1576   -6.3956    6.4007 N.pl3     1 <0>        -0.5819
     35 C25        -7.0562   -5.5566    5.9154 C.3       1 <0>         0.0621
     36 H3          0.9847    1.9072   -0.0163 H         1 <0>         0.0564
     37 H4         -0.5669    1.8759   -0.8880 H         1 <0>         0.0979
     38 H5         -0.5459    1.8769    0.8918 H         1 <0>         0.0697
     39 H6         -2.1643    0.2341    0.1445 H         1 <0>         0.1000
     40 H7         -1.6446   -1.2292   -0.7512 H         1 <0>         0.1015
     41 H8          2.7768   -1.8530    0.3457 H         1 <0>         0.1887
     42 H9          5.1308   -1.3667    0.9679 H         1 <0>         0.1875
     43 H10         5.5887    0.5252    2.5147 H         1 <0>         0.1953
     44 H11         3.7116    1.8564    3.3825 H         1 <0>         0.2174
     45 H12         0.1482   -3.0009    3.1171 H         1 <0>         0.1090
     46 H13         1.2002   -1.6198    3.5094 H         1 <0>         0.0555
     47 H14        -0.5066   -1.6102    4.0145 H         1 <0>         0.1057
     48 H15        -4.2000   -0.9678    1.2550 H         1 <0>         0.1345
     49 H16        -3.7800   -2.3700    0.2422 H         1 <0>         0.1335
     50 H17        -6.9755   -3.2355    4.2760 H         1 <0>         0.4370
     51 H18        -5.1626   -6.4883    3.0800 H         1 <0>         0.1366
     52 H19        -4.7163   -5.2607    4.2891 H         1 <0>         0.1255
     53 H20        -6.8435   -8.1633    2.4665 H         1 <0>         0.1641
     54 H21        -8.4988   -9.9322    2.6008 H         1 <0>         0.1610
     55 H22       -10.0350  -10.1048    4.4955 H         1 <0>         0.1639
     56 H23        -9.9989   -8.5466    6.3269 H         1 <0>         0.1631
     57 H24        -6.2268   -5.5758    6.6223 H         1 <0>         0.1770
     58 H25        -7.4024   -4.5335    5.7690 H         1 <0>         0.1643
     59 H26        -8.6465   -6.2649    7.2283 H         1 <0>         0.4581
     60 H27         1.5546    1.2979    2.7111 H         1 <0>         0.4462
@<TRIPOS>BOND
     1    1    2 1
     2    1   36 1
     3    1   37 1
     4    1   38 1
     5    2    3 1
     6    2    7 1
     7    2    4 1
     8    4    5 1
     9    4   39 1
    10    4   40 1
    11    5    6 2
    12    5   15 1
    13    6    7 1
    14    6   14 1
    15    7    8 1
    16    8   13 ar
    17    8    9 ar
    18    9   10 ar
    19    9   41 1
    20   10   11 ar
    21   10   42 1
    22   11   12 ar
    23   11   43 1
    24   12   13 ar
    25   12   44 1
    26   13   60 1
    27   14   45 1
    28   14   46 1
    29   14   47 1
    30   15   16 2
    31   15   17 1
    32   17   18 1
    33   17   48 1
    34   17   49 1
    35   18   24 am
    36   18   19 am
    37   19   20 2
    38   19   21 1
    39   21   22 1
    40   21   23 1
    41   21   26 1
    42   23   24 am
    43   23   50 1
    44   24   25 2
    45   26   27 1
    46   26   51 1
    47   26   52 1
    48   27   35 1
    49   27   28 2
    50   28   33 ar
    51   28   29 ar
    52   29   30 ar
    53   29   53 1
    54   30   31 ar
    55   30   54 1
    56   31   32 ar
    57   31   55 1
    58   32   33 ar
    59   32   56 1
    60   33   34 2
    61   34   35 1
    62   34   59 1
    63   35   57 1
    64   35   58 1
