@<TRIPOS>MOLECULE
ZINC63994189
   61    66     0     0     0
SMALL
USER_CHARGES

@<TRIPOS>ATOM
      1 C1         -0.0167    1.3781    0.0096 C.ar      1 <0>        -0.1004
      2 C2          1.1709    2.0855    0.0021 C.ar      1 <0>        -0.1207
      3 C3          2.3773    1.4107   -0.0130 C.ar      1 <0>        -0.1020
      4 C4          2.3960    0.0285   -0.0201 C.ar      1 <0>        -0.1280
      5 C5          1.2084   -0.6789   -0.0117 C.ar      1 <0>        -0.0866
      6 C6          0.0021   -0.0041    0.0020 C.ar      1 <0>        -0.1169
      7 C7          3.7112   -0.7071   -0.0376 C.3       1 <0>         0.1579
      8 N1          4.1518   -0.9524    1.3379 N.pl3     1 <0>        -0.2550
      9 C8          4.9168   -0.1174    2.0619 C.2       1 <0>         0.0189
     10 C9          5.0992   -0.6956    3.2747 C.2       1 <0>        -0.1701
     11 C10         4.4082   -1.9170    3.2314 C.2       1 <0>         0.0070
     12 N2          3.8580   -1.9973    2.0318 N.2       1 <0>        -0.2458
     13 C11         4.3108   -2.9150    4.3160 C.2       1 <0>         0.6090
     14 O1          4.8651   -2.7136    5.3790 O.2       1 <0>        -0.5244
     15 N3          3.6072   -4.0489    4.1271 N.am      1 <0>        -0.7110
     16 C12         3.5106   -5.0388    5.2027 C.3       1 <0>         0.2151
     17 C13         2.6751   -6.2043    4.7393 C.2       1 <0>         0.0130
     18 N4          3.0691   -7.3012    4.1421 N.2       1 <0>        -0.4957
     19 C14         2.2107   -8.2392    3.7945 C.2       1 <0>         0.0294
     20 C15         0.9034   -8.0148    4.0841 C.2       1 <0>        -0.2138
     21 S1          1.0104   -6.4151    4.8703 S.3       1 <0>         0.1325
     22 C16         5.8951   -0.0833    4.3963 C.3       1 <0>         0.1992
     23 N5          6.6242    1.0688    3.8326 N.am      1 <0>        -0.5944
     24 C17         5.9028    1.9772    2.9290 C.3       1 <0>         0.0939
     25 C18         5.4957    1.2148    1.6615 C.3       1 <0>        -0.0699
     26 C19         7.9190    1.2836    4.1387 C.2       1 <0>         0.5283
     27 O2          8.4994    0.5249    4.8861 O.2       1 <0>        -0.4912
     28 C20         8.6458    2.4664    3.5523 C.3       1 <0>         0.0662
     29 H1          8.6367    2.4104    2.4638 H         1 <0>         0.1977
     30 C21         8.0019    3.7548    4.0134 C.2       1 <0>         0.0215
     31 C22         8.9564    4.4275    4.6959 C.ar      1 <0>        -0.1435
     32 C23         8.9600    5.7247    5.3828 C.ar      1 <0>        -0.0162
     33 C24        10.0937    6.1417    5.9909 C.ar      1 <0>        -0.1447
     34 C25        11.2625    5.3681    5.9817 C.ar      1 <0>         0.0606
     35 C26        11.3366    4.1661    5.3718 C.ar      1 <0>        -0.2072
     36 C27        10.2033    3.6296    4.7006 C.ar      1 <0>         0.3384
     37 N6         10.0271    2.5063    4.0451 N.pl3     1 <0>        -0.5560
     38 H2         -0.9591    1.9053    0.0259 H         1 <0>         0.1286
     39 H3          1.1563    3.1654    0.0076 H         1 <0>         0.1279
     40 H4          3.3051    1.9634   -0.0196 H         1 <0>         0.1210
     41 H5          1.2231   -1.7588   -0.0176 H         1 <0>         0.1274
     42 H6         -0.9258   -0.5567    0.0082 H         1 <0>         0.1294
     43 H7          3.5884   -1.6586   -0.5549 H         1 <0>         0.1168
     44 H8          4.4573   -0.1052   -0.5563 H         1 <0>         0.1117
     45 H9          3.1649   -4.2096    3.2789 H         1 <0>         0.4109
     46 H10         4.5089   -5.3889    5.4651 H         1 <0>         0.1056
     47 H11         3.0445   -4.5821    6.0759 H         1 <0>         0.1008
     48 H12         2.5325   -9.1446    3.3016 H         1 <0>         0.1776
     49 H13         0.0389   -8.6338    3.8947 H         1 <0>         0.2017
     50 H14         5.2246    0.2524    5.1874 H         1 <0>         0.0992
     51 H15         6.6018   -0.8128    4.7916 H         1 <0>         0.1180
     52 H16         5.0107    2.3548    3.4287 H         1 <0>         0.1033
     53 H17         6.5500    2.8118    2.6594 H         1 <0>         0.0929
     54 H18         6.3717    1.0583    1.0321 H         1 <0>         0.0926
     55 H19         4.7478    1.7886    1.1142 H         1 <0>         0.1035
     56 H20         6.9856    4.0733    3.8341 H         1 <0>         0.2164
     57 H21         8.0707    6.3371    5.4019 H         1 <0>         0.1672
     58 H22        10.0987    7.0960    6.4966 H         1 <0>         0.1616
     59 H23        12.1399    5.7494    6.4829 H         1 <0>         0.1646
     60 H24        12.2615    3.6089    5.3936 H         1 <0>         0.1646
     61 H25        10.6967    1.8178    3.9092 H         1 <0>         0.4614
@<TRIPOS>BOND
     1    1    6 ar
     2    1    2 ar
     3    1   38 1
     4    2    3 ar
     5    2   39 1
     6    3    4 ar
     7    3   40 1
     8    4    5 ar
     9    4    7 1
    10    5    6 ar
    11    5   41 1
    12    6   42 1
    13    7    8 1
    14    7   43 1
    15    7   44 1
    16    8   12 1
    17    8    9 1
    18    9   25 1
    19    9   10 2
    20   10   11 1
    21   10   22 1
    22   11   12 2
    23   11   13 1
    24   13   14 2
    25   13   15 am
    26   15   16 1
    27   15   45 1
    28   16   17 1
    29   16   46 1
    30   16   47 1
    31   17   21 1
    32   17   18 2
    33   18   19 1
    34   19   20 2
    35   19   48 1
    36   20   21 1
    37   20   49 1
    38   22   23 1
    39   22   50 1
    40   22   51 1
    41   23   24 1
    42   23   26 am
    43   24   25 1
    44   24   52 1
    45   24   53 1
    46   25   54 1
    47   25   55 1
    48   26   27 2
    49   26   28 1
    50   28   29 1
    51   28   37 1
    52   28   30 1
    53   30   31 2
    54   30   56 1
    55   31   36 ar
    56   31   32 ar
    57   32   33 ar
    58   32   57 1
    59   33   34 ar
    60   33   58 1
    61   34   35 ar
    62   34   59 1
    63   35   36 ar
    64   35   60 1
    65   36   37 2
    66   37   61 1
