@<TRIPOS>MOLECULE
ZINC04574746
   58    61     0     0     0
SMALL
USER_CHARGES
4-dimethylamino-1,5,6,10,12,12a-hexahydroxy-6-methyl-3,11-dioxo-4,4a,5,5a-tetrahydrotetracene-2-carboxamide
@<TRIPOS>ATOM
      1 C1          3.1144   -0.9514    0.4850 C.3       1 <0>        -0.1863
      2 C2          2.1724   -0.3689    1.5406 C.3       1 <0>         0.1853
      3 C3          2.7420   -0.6275    2.9094 C.ar      1 <0>        -0.0703
      4 C4          3.6182   -1.6736    3.1084 C.ar      1 <0>        -0.1319
      5 C5          4.1303   -1.9245    4.3705 C.ar      1 <0>        -0.0709
      6 C6          3.7697   -1.1328    5.4432 C.ar      1 <0>        -0.1491
      7 C7          2.8946   -0.0722    5.2601 C.ar      1 <0>         0.1651
      8 C8          2.3825    0.1878    3.9832 C.ar      1 <0>        -0.1726
      9 C9          1.4831    1.3365    3.7571 C.2       1 <0>         0.4269
     10 O1          0.9642    1.9104    4.6977 O.2       1 <0>        -0.4076
     11 C10         1.2322    1.7635    2.4212 C.2       1 <0>        -0.1946
     12 C11         0.3223    2.7198    2.2103 C.2       1 <0>         0.1171
     13 C12        -0.0057    3.2945    0.8652 C.3       1 <0>         0.2057
     14 C13         0.9837    2.8412   -0.1839 C.3       1 <0>        -0.1375
     15 H1          1.9163    3.3778   -0.0095 H         1 <0>         0.1439
     16 C14         1.2765    1.3493   -0.0270 C.3       1 <0>         0.1163
     17 H2          1.9018    1.0082   -0.8521 H         1 <0>         0.0981
     18 C15         2.0114    1.1307    1.2992 C.3       1 <0>        -0.0078
     19 H3          2.9960    1.5955    1.2470 H         1 <0>         0.1195
     20 O2          0.0490    0.6178   -0.0213 O.3       1 <0>        -0.5045
     21 C16         0.5551    3.1600   -1.6028 C.3       1 <0>        -0.0006
     22 H4          1.2286    2.6618   -2.3001 H         1 <0>         0.1795
     23 C17        -0.8510    2.6986   -1.8613 C.2       1 <0>         0.3924
     24 O3         -1.1749    2.3211   -2.9685 O.2       1 <0>        -0.3810
     25 C18        -1.8270    2.7066   -0.7744 C.2       1 <0>        -0.3583
     26 C19        -1.4256    2.9780    0.5088 C.2       1 <0>         0.2172
     27 O4         -2.3438    2.9588    1.4863 O.3       1 <0>        -0.4248
     28 C20        -3.2432    2.4234   -1.0567 C.2       1 <0>         0.5602
     29 O5         -3.6063    1.2803   -1.2591 O.2       1 <0>        -0.4859
     30 N1         -4.1380    3.4307   -1.0910 N.am      1 <0>        -0.8455
     31 C21         2.0251    5.0763   -1.7754 C.3       1 <0>        -0.0479
     32 C22        -0.0170    4.9962   -3.0738 C.3       1 <0>        -0.0537
     33 O6          0.1108    4.7154    0.9616 O.3       1 <0>        -0.5497
     34 O7         -0.3451    3.1993    3.2787 O.3       1 <0>        -0.3960
     35 O8          2.5377    0.7082    6.3110 O.3       1 <0>        -0.4773
     36 O9          0.8961   -1.0028    1.4341 O.3       1 <0>        -0.5166
     37 H5          4.0864   -0.4633    0.5565 H         1 <0>         0.0737
     38 H6          3.2319   -2.0218    0.6539 H         1 <0>         0.0764
     39 H7          2.6959   -0.7839   -0.5074 H         1 <0>         0.0705
     40 H8          3.9059   -2.2999    2.2769 H         1 <0>         0.1377
     41 H9          4.8170   -2.7451    4.5169 H         1 <0>         0.1376
     42 H10         4.1690   -1.3397    6.4252 H         1 <0>         0.1402
     43 H11        -0.4099    0.6128   -0.8724 H         1 <0>         0.3680
     44 H12        -3.2381    2.7345    1.0992 H         1 <0>         0.4266
     45 H13        -3.8386    4.3487   -0.9990 H         1 <0>         0.4028
     46 H14        -5.0814    3.2376   -1.2077 H         1 <0>         0.4187
     47 H15         2.6059    4.5447   -2.5291 H         1 <0>         0.1300
     48 H16         2.0570    6.1464   -1.9800 H         1 <0>         0.1341
     49 H17         2.4461    4.8823   -0.7888 H         1 <0>         0.1260
     50 H18        -1.0887    4.8104   -3.0021 H         1 <0>         0.1163
     51 H19         0.1563    6.0555   -3.2634 H         1 <0>         0.1364
     52 H20         0.3998    4.4078   -3.8912 H         1 <0>         0.1338
     53 H21        -0.4447    5.1100    1.6477 H         1 <0>         0.4116
     54 H22        -0.9895    3.9035    2.9806 H         1 <0>         0.3804
     55 H23         3.1174    1.4695    6.4503 H         1 <0>         0.3953
     56 H24         0.9189   -1.9591    1.5756 H         1 <0>         0.3776
     57 N2          0.6178    4.6246   -1.7918 N.4       1 <0>        -0.3853
     58 H25         0.1119    5.0819   -1.0242 H         1 <0>         0.4349
@<TRIPOS>BOND
     1    1    2 1
     2    1   37 1
     3    1   38 1
     4    1   39 1
     5    2   18 1
     6    2    3 1
     7    2   36 1
     8    3    8 ar
     9    3    4 ar
    10    4    5 ar
    11    4   40 1
    12    5    6 ar
    13    5   41 1
    14    6    7 ar
    15    6   42 1
    16    7    8 ar
    17    7   35 1
    18    8    9 1
    19    9   10 2
    20    9   11 1
    21   11   18 1
    22   11   12 2
    23   12   13 1
    24   12   34 1
    25   13   26 1
    26   13   14 1
    27   13   33 1
    28   14   15 1
    29   14   16 1
    30   14   21 1
    31   16   17 1
    32   16   18 1
    33   16   20 1
    34   18   19 1
    35   20   43 1
    36   21   22 1
    37   21   23 1
    38   21   57 1
    39   23   24 2
    40   23   25 1
    41   25   26 2
    42   25   28 1
    43   26   27 1
    44   27   44 1
    45   28   29 2
    46   28   30 am
    47   30   45 1
    48   30   46 1
    49   31   47 1
    50   31   48 1
    51   31   49 1
    52   31   57 1
    53   32   50 1
    54   32   51 1
    55   32   52 1
    56   32   57 1
    57   33   53 1
    58   34   54 1
    59   35   55 1
    60   36   56 1
    61   57   58 1
