@<TRIPOS>MOLECULE
ZINC39015925
   45    48     0     0     0
SMALL
USER_CHARGES

@<TRIPOS>ATOM
      1 C1         -0.0184    1.5028    0.0103 C.3       1 <0>        -0.1159
      2 C2          0.0021   -0.0041    0.0020 C.ar      1 <0>        -0.0923
      3 C3          0.0057   -0.6877   -1.2000 C.ar      1 <0>        -0.1019
      4 C4          0.0240   -2.0688   -1.2103 C.ar      1 <0>        -0.1392
      5 C5          0.0391   -2.7702   -0.0132 C.ar      1 <0>         0.1099
      6 C6          0.0359   -2.0821    1.1912 C.ar      1 <0>        -0.1230
      7 C7          0.0229   -0.7005    1.1961 C.ar      1 <0>        -0.0894
      8 C8          0.0523   -2.8407    2.4932 C.3       1 <0>         0.1608
      9 H1         -0.5317   -3.7572    2.4090 H         1 <0>         0.1019
     10 C9          1.4998   -3.1573    2.9180 C.3       1 <0>        -0.0964
     11 C10         1.6567   -2.4420    4.2408 C.2       1 <0>         0.0022
     12 N1          0.5542   -1.8372    4.5366 N.2       1 <0>        -0.1261
     13 N2         -0.4579   -2.0006    3.5881 N.pl3     1 <0>        -0.6277
     14 C11         2.8735   -2.4357    5.0619 C.2       1 <0>         0.5831
     15 O1          3.8643   -3.0422    4.6889 O.2       1 <0>        -0.5543
     16 N3          2.8961   -1.7637    6.2215 N.2       1 <0>        -0.5734
     17 C12         3.9963   -1.7580    6.9639 C.2       1 <0>         0.4415
     18 N4          5.1935   -2.3621    6.7208 N.pl3     1 <0>        -0.6266
     19 H2          5.3170   -2.8806    5.9103 H         1 <0>         0.4301
     20 C13         6.2345   -2.2386    7.6258 C.ar      1 <0>         0.0764
     21 C14         7.5226   -2.7929    7.5289 C.ar      1 <0>        -0.0690
     22 C15         8.4582   -2.5835    8.5125 C.ar      1 <0>        -0.1652
     23 C16         8.1642   -1.8184    9.6344 C.ar      1 <0>         0.1348
     24 C17         6.8997   -1.2592    9.7555 C.ar      1 <0>        -0.0748
     25 C18         5.9664   -1.4712    8.7689 C.ar      1 <0>        -0.1235
     26 S1          4.2847   -0.9506    8.5298 S.3       1 <0>         0.1571
     27 O2          9.1013   -1.6209   10.5996 O.3       1 <0>        -0.3071
     28 C19        10.3777   -2.2313   10.3992 C.3       1 <0>         0.0238
     29 O3          0.0567   -4.1291   -0.0207 O.3       1 <0>        -0.4959
     30 H3          1.0042    1.8801    0.0026 H         1 <0>         0.0717
     31 H4         -0.5455    1.8639   -0.8728 H         1 <0>         0.0686
     32 H5         -0.5286    1.8543    0.9071 H         1 <0>         0.0676
     33 H6         -0.0061   -0.1413   -2.1315 H         1 <0>         0.1279
     34 H7          0.0261   -2.6023   -2.1493 H         1 <0>         0.1313
     35 H8          0.0245   -0.1642    2.1335 H         1 <0>         0.1280
     36 H9          1.6344   -4.2314    3.0460 H         1 <0>         0.0998
     37 H10         2.2070   -2.7670    2.1862 H         1 <0>         0.0948
     38 H11        -1.3498   -1.6228    3.6406 H         1 <0>         0.4405
     39 H12         7.7804   -3.3926    6.6685 H         1 <0>         0.1380
     40 H13         9.4401   -3.0219    8.4122 H         1 <0>         0.1442
     41 H14         6.6505   -0.6615   10.6198 H         1 <0>         0.1516
     42 H15        10.2561   -3.3120   10.3259 H         1 <0>         0.0596
     43 H16        10.8212   -1.8523    9.4785 H         1 <0>         0.0596
     44 H17        11.0294   -1.9952   11.2405 H         1 <0>         0.1062
     45 H18         0.9450   -4.5109   -0.0273 H         1 <0>         0.3909
@<TRIPOS>BOND
     1    1    2 1
     2    1   30 1
     3    1   31 1
     4    1   32 1
     5    2    7 ar
     6    2    3 ar
     7    3    4 ar
     8    3   33 1
     9    4    5 ar
    10    4   34 1
    11    5    6 ar
    12    5   29 1
    13    6    7 ar
    14    6    8 1
    15    7   35 1
    16    8    9 1
    17    8   13 1
    18    8   10 1
    19   10   11 1
    20   10   36 1
    21   10   37 1
    22   11   12 2
    23   11   14 1
    24   12   13 1
    25   13   38 1
    26   14   15 2
    27   14   16 1
    28   16   17 2
    29   17   26 1
    30   17   18 1
    31   18   19 1
    32   18   20 1
    33   20   25 ar
    34   20   21 ar
    35   21   22 ar
    36   21   39 1
    37   22   23 ar
    38   22   40 1
    39   23   24 ar
    40   23   27 1
    41   24   25 ar
    42   24   41 1
    43   25   26 1
    44   27   28 1
    45   28   42 1
    46   28   43 1
    47   28   44 1
    48   29   45 1
