@<TRIPOS>MOLECULE
ZINC59146502
   23    24     0     0     0
SMALL
USER_CHARGES

@<TRIPOS>ATOM
      1 C1         -0.0167    1.3792    0.0096 C.ar      1 <0>        -0.0530
      2 C2          1.1674    2.0946    0.0022 C.ar      1 <0>        -0.1553
      3 C3          2.3792    1.4310   -0.0130 C.ar      1 <0>         0.1523
      4 C4          2.4060    0.0322   -0.0208 C.ar      1 <0>        -0.0955
      5 C5          1.2048   -0.6823   -0.0132 C.ar      1 <0>         0.0171
      6 C6          0.0021   -0.0041    0.0020 C.ar      1 <0>        -0.1280
      7 Cl1         1.2247   -2.4182   -0.0233 Cl        1 <0>        -0.0025
      8 C7          3.6943   -0.6844   -0.0374 C.2       1 <0>         0.1254
      9 N1          3.7150   -1.9816   -0.0446 N.2       1 <0>        -0.1842
     10 N2          4.9394   -2.6625   -0.0605 N.am      1 <0>        -0.4372
     11 C8          6.1539   -2.0826   -0.0635 C.2       1 <0>         0.6737
     12 O1          6.3714   -0.8868   -0.0534 O.2       1 <0>        -0.5262
     13 N3          7.0884   -3.0548   -0.0794 N.am      1 <0>        -0.5168
     14 H1          8.0504   -2.9300   -0.0847 H         1 <0>         0.4585
     15 N4          6.4063   -4.2812   -0.0862 N.am      1 <0>        -0.5180
     16 H2          6.8076   -5.1642   -0.0974 H         1 <0>         0.4633
     17 C9          5.0874   -4.0001   -0.0691 C.2       1 <0>         0.7211
     18 O2          4.1861   -4.8157   -0.0652 O.2       1 <0>        -0.4972
     19 F1          3.5348    2.1308   -0.0207 F         1 <0>        -0.1199
     20 H3         -0.9608    1.9034    0.0260 H         1 <0>         0.1495
     21 H4          1.1444    3.1743    0.0078 H         1 <0>         0.1511
     22 H5         -0.9267   -0.5551    0.0083 H         1 <0>         0.1479
     23 H6          4.6208   -0.1294   -0.0437 H         1 <0>         0.1737
@<TRIPOS>BOND
     1    1    6 ar
     2    1    2 ar
     3    1   20 1
     4    2    3 ar
     5    2   21 1
     6    3    4 ar
     7    3   19 1
     8    4    5 ar
     9    4    8 1
    10    5    6 ar
    11    5    7 1
    12    6   22 1
    13    8    9 2
    14    8   23 1
    15    9   10 1
    16   10   17 am
    17   10   11 am
    18   11   12 2
    19   11   13 am
    20   13   14 1
    21   13   15 1
    22   15   16 1
    23   15   17 am
    24   17   18 2
