@<TRIPOS>MOLECULE
ZINC06894322
   68    70     0     0     0
SMALL
USER_CHARGES
N-[3-(3,5-dimethyl-1-piperidyl)propyl]-1-morpholinosulfonyl-piperidine-3-carboxamide
@<TRIPOS>ATOM
      1 C1          2.4583    2.4059   16.6818 C.3       1 <0>        -0.1521
      2 C2          1.9885    1.5011   15.5409 C.3       1 <0>        -0.1115
      3 H1          0.9892    1.1261   15.7618 H         1 <0>         0.0935
      4 C3          2.9550    0.3231   15.3906 C.3       1 <0>        -0.1313
      5 C4          2.5106   -0.5439   14.2092 C.3       1 <0>        -0.1109
      6 H2          1.5198   -0.9517   14.4095 H         1 <0>         0.0933
      7 C5          2.4647    0.3135   12.9424 C.3       1 <0>        -0.0094
      8 C6          1.9577    2.2992   14.2355 C.3       1 <0>         0.0002
      9 C7          1.3516    2.1905   11.8943 C.3       1 <0>        -0.0009
     10 C8          1.1480    1.2245   10.7254 C.3       1 <0>        -0.1657
     11 C9          0.9662    2.0206    9.4316 C.3       1 <0>         0.1225
     12 N1          0.7712    1.0957    8.3123 N.am      1 <0>        -0.7362
     13 C10         0.5894    1.5749    7.0659 C.2       1 <0>         0.5274
     14 O1          0.5871    2.7719    6.8708 O.2       1 <0>        -0.5241
     15 C11         0.3889    0.6235    5.9146 C.3       1 <0>        -0.1214
     16 H3         -0.4972    0.0148    6.0950 H         1 <0>         0.1072
     17 C12         1.6139   -0.2843    5.7828 C.3       1 <0>        -0.1065
     18 C13         1.3973   -1.2727    4.6346 C.3       1 <0>        -0.1320
     19 C14         1.2239   -0.5014    3.3275 C.3       1 <0>         0.1133
     20 N2          0.1430    0.4803    3.4910 N.pl3     1 <0>        -1.0073
     21 C15         0.2068    1.4200    4.6187 C.3       1 <0>         0.1386
     22 S1         -1.1265    0.5224    2.4285 S.o2      1 <0>         2.7822
     23 O2         -2.2154    1.1182    3.1201 O.2       1 <0>        -0.9694
     24 O3         -1.2105   -0.7704    1.8447 O.2       1 <0>        -0.9669
     25 N3         -0.7115    1.5654    1.2109 N.pl3     1 <0>        -1.0086
     26 C16        -0.0127    1.0858    0.0080 C.3       1 <0>         0.0827
     27 C17        -0.7644    1.5988   -1.2256 C.3       1 <0>         0.0491
     28 O4         -0.9404    3.0132   -1.1151 O.3       1 <0>        -0.3747
     29 C18        -1.7342    3.4187    0.0026 C.3       1 <0>         0.0493
     30 C19        -1.0322    2.9990    1.2991 C.3       1 <0>         0.0828
     31 C20         3.5050   -1.6902   14.0144 C.3       1 <0>        -0.1518
     32 H4          1.7713    3.2458   16.7859 H         1 <0>         0.0690
     33 H5          2.4800    1.8369   17.6113 H         1 <0>         0.0778
     34 H6          3.4581    2.7795   16.4611 H         1 <0>         0.0675
     35 H7          3.9618    0.6989   15.2082 H         1 <0>         0.0827
     36 H8          2.9482   -0.2725   16.3035 H         1 <0>         0.0946
     37 H9          2.1349   -0.2974   12.1021 H         1 <0>         0.1314
     38 H10         3.4591    0.7092   12.7354 H         1 <0>         0.1309
     39 H11         2.9544    2.6856   14.0224 H         1 <0>         0.1307
     40 H12         1.2596    3.1305   14.3345 H         1 <0>         0.1298
     41 H13         2.2386    2.7976   11.7136 H         1 <0>         0.1350
     42 H14         0.4801    2.8387   11.9860 H         1 <0>         0.1341
     43 H15         0.2609    0.6173   10.9061 H         1 <0>         0.0949
     44 H16         2.0195    0.5762   10.6337 H         1 <0>         0.0969
     45 H17         1.8532    2.6278    9.2509 H         1 <0>         0.0789
     46 H18         0.0947    2.6688    9.5232 H         1 <0>         0.0792
     47 H19         0.7730    0.1383    8.4684 H         1 <0>         0.4036
     48 H20         2.4955    0.3230    5.5777 H         1 <0>         0.0741
     49 H21         1.7600   -0.8343    6.7124 H         1 <0>         0.0691
     50 H22         2.2602   -1.9341    4.5563 H         1 <0>         0.0860
     51 H23         0.5021   -1.8639    4.8274 H         1 <0>         0.0731
     52 H24         0.9692   -1.1952    2.5264 H         1 <0>         0.0970
     53 H25         2.1527    0.0149    3.0850 H         1 <0>         0.0732
     54 H26         1.0510    2.0961    4.4837 H         1 <0>         0.0815
     55 H27        -0.7188    1.9934    4.6693 H         1 <0>         0.0994
     56 H28         0.0021   -0.0041    0.0020 H         1 <0>         0.1019
     57 H29         1.0085    1.4668    0.0003 H         1 <0>         0.0798
     58 H30        -0.1886    1.3725   -2.1230 H         1 <0>         0.1103
     59 H31        -1.7386    1.1135   -1.2861 H         1 <0>         0.0589
     60 H32        -1.8561    4.5018   -0.0113 H         1 <0>         0.1099
     61 H33        -2.7126    2.9415   -0.0535 H         1 <0>         0.0588
     62 H34        -0.1138    3.5731    1.4217 H         1 <0>         0.0798
     63 H35        -1.6923    3.1766    2.1481 H         1 <0>         0.1013
     64 H36         3.5399   -2.2985   14.9182 H         1 <0>         0.0779
     65 H37         3.1883   -2.3070   13.1734 H         1 <0>         0.0681
     66 H38         4.4953   -1.2819   13.8128 H         1 <0>         0.0673
     67 N4          1.4991    1.4148   13.1431 N.4       1 <0>        -0.3930
     68 H39         0.5877    1.0163   13.3976 H         1 <0>         0.4274
@<TRIPOS>BOND
     1    1    2 1
     2    1   32 1
     3    1   33 1
     4    1   34 1
     5    2    3 1
     6    2    8 1
     7    2    4 1
     8    4    5 1
     9    4   35 1
    10    4   36 1
    11    5    6 1
    12    5    7 1
    13    5   31 1
    14    7   37 1
    15    7   38 1
    16    7   67 1
    17    8   39 1
    18    8   40 1
    19    8   67 1
    20    9   10 1
    21    9   41 1
    22    9   42 1
    23    9   67 1
    24   10   11 1
    25   10   43 1
    26   10   44 1
    27   11   12 1
    28   11   45 1
    29   11   46 1
    30   12   13 am
    31   12   47 1
    32   13   14 2
    33   13   15 1
    34   15   16 1
    35   15   21 1
    36   15   17 1
    37   17   18 1
    38   17   48 1
    39   17   49 1
    40   18   19 1
    41   18   50 1
    42   18   51 1
    43   19   20 1
    44   19   52 1
    45   19   53 1
    46   20   21 1
    47   20   22 1
    48   21   54 1
    49   21   55 1
    50   22   23 2
    51   22   24 2
    52   22   25 1
    53   25   30 1
    54   25   26 1
    55   26   27 1
    56   26   56 1
    57   26   57 1
    58   27   28 1
    59   27   58 1
    60   27   59 1
    61   28   29 1
    62   29   30 1
    63   29   60 1
    64   29   61 1
    65   30   62 1
    66   30   63 1
    67   31   64 1
    68   31   65 1
    69   31   66 1
    70   67   68 1
