@<TRIPOS>MOLECULE
ZINC01231423
   27    28     0     0     0
SMALL
USER_CHARGES
4-amino-N-[(3,5-dibromo-2-hydroxy-phenyl)methyleneamino]-1,2,5-oxadiazole-3-carboxamide
@<TRIPOS>ATOM
      1 C1         -2.8950    8.1603    0.0608 C.ar      1 <0>        -0.0300
      2 C2         -3.9871    9.0040    0.0703 C.ar      1 <0>        -0.1044
      3 C3         -5.2708    8.4843    0.0739 C.ar      1 <0>        -0.0301
      4 C4         -5.4710    7.1157    0.0674 C.ar      1 <0>        -0.1256
      5 C5         -4.3853    6.2548    0.0520 C.ar      1 <0>         0.1923
      6 C6         -3.0843    6.7765    0.0542 C.ar      1 <0>        -0.0726
      7 C7         -1.9227    5.8700    0.0435 C.2       1 <0>         0.1111
      8 N1         -2.1027    4.5841    0.0374 N.2       1 <0>        -0.1961
      9 N2         -0.9982    3.7222    0.0272 N.am      1 <0>        -0.5697
     10 C8         -1.1851    2.3875    0.0209 C.2       1 <0>         0.6363
     11 O1         -2.3120    1.9314    0.0241 O.2       1 <0>        -0.4779
     12 C9         -0.0180    1.4767    0.0102 C.2       1 <0>        -0.0920
     13 C10         0.0021   -0.0041    0.0020 C.2       1 <0>         0.3327
     14 N3          1.2875   -0.2718   -0.0117 N.2       1 <0>        -0.4102
     15 O2          1.9142    0.7613   -0.0121 O.3       1 <0>         0.3537
     16 N4          1.2625    1.7791   -0.0004 N.2       1 <0>        -0.3054
     17 N5         -1.0689   -0.8871    0.0071 N.pl3     1 <0>        -0.7983
     18 O3         -4.5810    4.9106    0.0399 O.3       1 <0>        -0.4567
     19 Br1        -7.2288    6.4186    0.0730 Br        1 <0>        -0.0145
     20 Br2        -3.7297   10.8774    0.0792 Br        1 <0>        -0.0241
     21 H1         -1.8955    8.5694    0.0588 H         1 <0>         0.1515
     22 H2         -6.1202    9.1512    0.0813 H         1 <0>         0.1508
     23 H3         -0.9215    6.2751    0.0407 H         1 <0>         0.1329
     24 H4         -0.0991    4.0861    0.0247 H         1 <0>         0.3950
     25 H5         -1.9775   -0.5475    0.0173 H         1 <0>         0.4302
     26 H6         -0.9087   -1.8438    0.0005 H         1 <0>         0.4197
     27 H7         -4.6359    4.5133    0.9198 H         1 <0>         0.4015
@<TRIPOS>BOND
     1    1    6 ar
     2    1    2 ar
     3    1   21 1
     4    2    3 ar
     5    2   20 1
     6    3    4 ar
     7    3   22 1
     8    4    5 ar
     9    4   19 1
    10    5    6 ar
    11    5   18 1
    12    6    7 1
    13    7    8 2
    14    7   23 1
    15    8    9 1
    16    9   10 am
    17    9   24 1
    18   10   11 2
    19   10   12 1
    20   12   16 2
    21   12   13 1
    22   13   14 2
    23   13   17 1
    24   14   15 1
    25   15   16 1
    26   17   25 1
    27   17   26 1
    28   18   27 1
