@<TRIPOS>MOLECULE
ZINC49181844
   51    52     0     0     0
SMALL
USER_CHARGES

@<TRIPOS>ATOM
      1 C1          0.8855   -0.4013   -1.2685 C.3       1 <0>        -0.2066
      2 C2          0.1653    0.1240   -0.0250 C.3       1 <0>         0.1012
      3 H1          0.2725    1.2075    0.0264 H         1 <0>         0.1276
      4 C3          0.7789   -0.5092    1.2254 C.3       1 <0>         0.0832
      5 C4         -0.0309   -0.0960    2.4560 C.3       1 <0>         0.1310
      6 H2         -1.0358   -0.5125    2.3863 H         1 <0>         0.1174
      7 C5          0.6537   -0.6247    3.7181 C.3       1 <0>        -0.1895
      8 O1         -0.1092    1.3294    2.5182 O.3       1 <0>        -0.5401
      9 C6          0.7575   -2.0100    1.0906 C.2       1 <0>         0.4478
     10 O2         -0.0583   -2.5407    0.3747 O.2       1 <0>        -0.4957
     11 O3          1.6449   -2.7572    1.7660 O.3       1 <0>        -0.3250
     12 C7          1.5669   -4.1733    1.5911 C.3       1 <0>         0.1064
     13 C8          2.6331   -4.8413    2.4205 C.ar      1 <0>        -0.1095
     14 C9          3.4865   -4.0782    3.1930 C.ar      1 <0>        -0.1031
     15 C10         4.4682   -4.6929    3.9561 C.ar      1 <0>         0.0949
     16 C11         4.5933   -6.0746    3.9442 C.ar      1 <0>        -0.1185
     17 C12         3.7406   -6.8387    3.1727 C.ar      1 <0>        -0.1128
     18 C13         2.7541   -6.2243    2.4126 C.ar      1 <0>         0.1460
     19 N1          1.8847   -6.9994    1.6338 N.am      1 <0>        -0.6658
     20 C14         2.2748   -8.2117    1.1926 C.2       1 <0>         0.5020
     21 O4          3.3500   -8.6620    1.5277 O.2       1 <0>        -0.4852
     22 C15         1.3751   -9.0077    0.2827 C.3       1 <0>         0.0717
     23 H3          1.1219   -8.4200   -0.5997 H         1 <0>         0.1395
     24 C16         0.0868   -9.4164    1.0355 C.3       1 <0>        -0.1516
     25 C17        -0.0934  -10.8773    0.5354 C.3       1 <0>        -0.1832
     26 C18         1.3611  -11.3014    0.3607 C.2       1 <0>         0.4838
     27 O5          1.8287  -12.3905    0.5953 O.2       1 <0>        -0.4285
     28 O6          2.0230  -10.2248   -0.1069 O.3       1 <0>        -0.3234
     29 O7          5.3086   -3.9410    4.7158 O.3       1 <0>        -0.4953
     30 O8          2.1286   -0.0632    1.3717 O.3       1 <0>        -0.5268
     31 O9         -1.2211   -0.2145   -0.0989 O.3       1 <0>        -0.5488
     32 H4          0.8524   -1.4908   -1.2744 H         1 <0>         0.0667
     33 H5          0.3935   -0.0180   -2.1624 H         1 <0>         0.0815
     34 H6          1.9236   -0.0694   -1.2544 H         1 <0>         0.0684
     35 H7          1.6878   -0.2809    3.7416 H         1 <0>         0.0771
     36 H8          0.1279   -0.2553    4.5985 H         1 <0>         0.0724
     37 H9          0.6332   -1.7145    3.7132 H         1 <0>         0.0657
     38 H10         0.7502    1.7682    2.5817 H         1 <0>         0.3832
     39 H11         0.5855   -4.5252    1.9090 H         1 <0>         0.0831
     40 H12         1.7177   -4.4183    0.5397 H         1 <0>         0.0850
     41 H13         3.3897   -3.0026    3.2027 H         1 <0>         0.1454
     42 H14         5.3582   -6.5526    4.5383 H         1 <0>         0.1367
     43 H15         3.8383   -7.9142    3.1633 H         1 <0>         0.1600
     44 H16         1.0021   -6.6636    1.4123 H         1 <0>         0.4122
     45 H17         0.2357   -9.3859    2.1149 H         1 <0>         0.0967
     46 H18        -0.7565   -8.7926    0.7391 H         1 <0>         0.1164
     47 H19        -0.5946  -11.4904    1.2845 H         1 <0>         0.1181
     48 H20        -0.6279  -10.9048   -0.4142 H         1 <0>         0.1248
     49 H21         4.9889   -3.7800    5.6141 H         1 <0>         0.3919
     50 H22         2.7011   -0.2909    0.6263 H         1 <0>         0.3886
     51 H23        -1.3918   -1.1651   -0.1473 H         1 <0>         0.3829
@<TRIPOS>BOND
     1    1    2 1
     2    1   32 1
     3    1   33 1
     4    1   34 1
     5    2    3 1
     6    2    4 1
     7    2   31 1
     8    4    5 1
     9    4    9 1
    10    4   30 1
    11    5    6 1
    12    5    7 1
    13    5    8 1
    14    7   35 1
    15    7   36 1
    16    7   37 1
    17    8   38 1
    18    9   10 2
    19    9   11 1
    20   11   12 1
    21   12   13 1
    22   12   39 1
    23   12   40 1
    24   13   18 ar
    25   13   14 ar
    26   14   15 ar
    27   14   41 1
    28   15   16 ar
    29   15   29 1
    30   16   17 ar
    31   16   42 1
    32   17   18 ar
    33   17   43 1
    34   18   19 1
    35   19   20 am
    36   19   44 1
    37   20   21 2
    38   20   22 1
    39   22   23 1
    40   22   28 1
    41   22   24 1
    42   24   25 1
    43   24   45 1
    44   24   46 1
    45   25   26 1
    46   25   47 1
    47   25   48 1
    48   26   27 2
    49   26   28 1
    50   29   49 1
    51   30   50 1
    52   31   51 1
