@<TRIPOS>MOLECULE
ZINC13682061
   50    53     0     0     0
SMALL
USER_CHARGES
N-[(3R,4S)-4-hydroxy-1,1-dioxo-thiolan-3-yl]-2-(2,3,5-trimethyl-7-oxo-furo[3,2-g]chromen-6-yl)acetamide
@<TRIPOS>ATOM
      1 C1         -3.8995   12.5944    5.1255 C.3       1 <0>        -0.0827
      2 C2         -3.4993   11.5906    6.1760 C.2       1 <0>        -0.1713
      3 C3         -3.0752   11.8528    7.4183 C.2       1 <0>         0.0364
      4 O1         -2.8087   10.7077    8.0715 O.3       1 <0>        -0.1858
      5 C4         -3.0462    9.6374    7.2858 C.ar      1 <0>         0.1108
      6 C5         -3.4962   10.1270    6.0426 C.ar      1 <0>        -0.1415
      7 C6         -3.8232    9.2504    5.0178 C.ar      1 <0>        -0.0023
      8 C7         -3.7025    7.8769    5.2294 C.ar      1 <0>        -0.1581
      9 C8         -4.0398    6.9222    4.1689 C.2       1 <0>         0.0505
     10 C9         -3.9036    5.5976    4.4311 C.2       1 <0>        -0.2104
     11 C10        -3.4532    5.1762    5.7002 C.2       1 <0>         0.5259
     12 O2         -3.3408    3.9843    5.9234 O.2       1 <0>        -0.4571
     13 O3         -3.1401    6.0535    6.6658 O.3       1 <0>        -0.2660
     14 C11        -3.2524    7.3872    6.4730 C.ar      1 <0>         0.1714
     15 C12        -2.9292    8.2703    7.4886 C.ar      1 <0>        -0.1273
     16 C13        -4.2383    4.5794    3.3718 C.3       1 <0>        -0.0824
     17 C14        -3.0089    4.2854    2.5513 C.2       1 <0>         0.5186
     18 O4         -1.9638    4.8473    2.8021 O.2       1 <0>        -0.5244
     19 N1         -3.0708    3.3979    1.5388 N.am      1 <0>        -0.7104
     20 C15        -1.8757    3.1121    0.7412 C.3       1 <0>         0.1511
     21 H1         -1.2731    4.0153    0.6444 H         1 <0>         0.1257
     22 C16        -1.0391    1.9946    1.4299 C.3       1 <0>        -0.5889
     23 S1         -0.0172    1.4168    0.0098 S.o2      1 <0>         2.3790
     24 O5          0.0021   -0.0041    0.0020 O.2       1 <0>        -0.9275
     25 O6          1.2102    2.1328    0.0020 O.2       1 <0>        -0.9277
     26 C17        -1.0641    2.0086   -1.3817 C.3       1 <0>        -0.6212
     27 C18        -2.2890    2.6117   -0.6528 C.3       1 <0>         0.1001
     28 H2         -2.6814    3.4461   -1.2341 H         1 <0>         0.0968
     29 O7         -3.3003    1.6112   -0.5171 O.3       1 <0>        -0.5563
     30 C19        -4.5252    7.3990    2.8242 C.3       1 <0>        -0.1311
     31 C20        -2.9182   13.2335    8.0015 C.3       1 <0>        -0.0825
     32 H3         -4.9659   12.8035    5.2103 H         1 <0>         0.0731
     33 H4         -3.3358   13.5160    5.2702 H         1 <0>         0.0724
     34 H5         -3.6861   12.1896    4.1362 H         1 <0>         0.0692
     35 H6         -4.1680    9.6276    4.0663 H         1 <0>         0.1466
     36 H7         -2.5850    7.8942    8.4407 H         1 <0>         0.1544
     37 H8         -5.0218    4.9729    2.7242 H         1 <0>         0.1140
     38 H9         -4.5862    3.6620    3.8466 H         1 <0>         0.1190
     39 H10        -3.9066    2.9485    1.3383 H         1 <0>         0.4143
     40 H11        -1.6803    1.1967    1.8046 H         1 <0>         0.1492
     41 H12        -0.4146    2.4019    2.2251 H         1 <0>         0.1483
     42 H13        -0.5434    2.7724   -1.9593 H         1 <0>         0.1513
     43 H14        -1.3619    1.1781   -2.0217 H         1 <0>         0.1527
     44 H15        -3.6312    1.2697   -1.3591 H         1 <0>         0.3954
     45 H16        -5.6120    7.4812    2.8385 H         1 <0>         0.0956
     46 H17        -4.0899    8.3741    2.6056 H         1 <0>         0.0844
     47 H18        -4.2247    6.6865    2.0560 H         1 <0>         0.0814
     48 H19        -3.8503   13.5339    8.4800 H         1 <0>         0.0894
     49 H20        -2.1163   13.2271    8.7397 H         1 <0>         0.0829
     50 H21        -2.6745   13.9382    7.2064 H         1 <0>         0.0951
@<TRIPOS>BOND
     1    1    2 1
     2    1   32 1
     3    1   33 1
     4    1   34 1
     5    2    6 1
     6    2    3 2
     7    3    4 1
     8    3   31 1
     9    4    5 1
    10    5   15 ar
    11    5    6 ar
    12    6    7 ar
    13    7    8 ar
    14    7   35 1
    15    8   14 ar
    16    8    9 1
    17    9   10 2
    18    9   30 1
    19   10   11 1
    20   10   16 1
    21   11   12 2
    22   11   13 1
    23   13   14 1
    24   14   15 ar
    25   15   36 1
    26   16   17 1
    27   16   37 1
    28   16   38 1
    29   17   18 2
    30   17   19 am
    31   19   20 1
    32   19   39 1
    33   20   21 1
    34   20   27 1
    35   20   22 1
    36   22   23 1
    37   22   40 1
    38   22   41 1
    39   23   24 2
    40   23   25 2
    41   23   26 1
    42   26   27 1
    43   26   42 1
    44   26   43 1
    45   27   28 1
    46   27   29 1
    47   29   44 1
    48   30   45 1
    49   30   46 1
    50   30   47 1
    51   31   48 1
    52   31   49 1
    53   31   50 1
