@<TRIPOS>MOLECULE
ZINC15085373
   60    63     0     0     0
SMALL
USER_CHARGES
ethyl (5S)-5-[[6-[(Z)-[[5-(hydroxymethyl)isoxazole-3-carbonyl]hydrazono]methyl]-4,7-dimethoxy-1,3-benzodioxol-5-yl]methyl]-4,5-dihydroisoxazole-3-carboxylate
@<TRIPOS>ATOM
      1 C1         -0.4903    4.1235   -0.8934 C.3       1 <0>        -0.1549
      2 C2          0.2754    3.4525    0.2487 C.3       1 <0>         0.0621
      3 O1         -0.4608    3.6197    1.4890 O.3       1 <0>        -0.3382
      4 C3          0.0815    3.0828    2.5996 C.2       1 <0>         0.5445
      5 O2          1.1404    2.4912    2.5334 O.2       1 <0>        -0.4788
      6 C4         -0.6104    3.2134    3.8953 C.2       1 <0>         0.0516
      7 N1         -1.7318    3.8198    4.0959 N.2       1 <0>        -0.1989
      8 O3         -2.1508    3.7684    5.4454 O.3       1 <0>        -0.1656
      9 C5         -1.0005    3.4251    6.2444 C.3       1 <0>         0.0460
     10 H1         -0.4931    4.3204    6.6037 H         1 <0>         0.1051
     11 C6         -0.1230    2.6636    5.2224 C.3       1 <0>        -0.1243
     12 C7         -1.3953    2.5173    7.4110 C.3       1 <0>        -0.0688
     13 C8         -2.1464    3.3210    8.4411 C.ar      1 <0>        -0.0545
     14 C9         -3.5449    3.3413    8.4292 C.ar      1 <0>        -0.0961
     15 C10        -4.2376    4.0896    9.3892 C.ar      1 <0>         0.1244
     16 C11        -3.5342    4.8069   10.3470 C.ar      1 <0>         0.0304
     17 C12        -2.1437    4.7819   10.3526 C.ar      1 <0>         0.0459
     18 C13        -1.4543    4.0334    9.4009 C.ar      1 <0>         0.1157
     19 O4         -0.0940    4.0082    9.4139 O.3       1 <0>        -0.3211
     20 C14         0.5285    2.9712   10.1749 C.3       1 <0>         0.0292
     21 O5         -1.6973    5.5601   11.3827 O.3       1 <0>        -0.2930
     22 C15        -2.8162    6.3868   11.7532 C.3       1 <0>         0.2085
     23 O6         -3.9615    5.6011   11.3737 O.3       1 <0>        -0.2937
     24 O7         -5.5971    4.1138    9.3826 O.3       1 <0>        -0.3215
     25 C16        -6.2666    3.1867   10.2395 C.3       1 <0>         0.0363
     26 C17        -4.2864    2.5781    7.4111 C.2       1 <0>         0.1113
     27 N2         -5.1415    3.1817    6.6420 N.2       1 <0>        -0.1796
     28 N3         -5.2598    4.5770    6.6856 N.am      1 <0>        -0.5518
     29 C18        -6.2098    5.1958    5.9569 C.2       1 <0>         0.6241
     30 O8         -7.0215    4.5397    5.3337 O.2       1 <0>        -0.4858
     31 C19        -6.2649    6.6767    5.9154 C.2       1 <0>        -0.0237
     32 C20        -7.2560    7.4783    5.2827 C.2       1 <0>        -0.1513
     33 C21        -6.8563    8.7467    5.5314 C.2       1 <0>        -0.0365
     34 O9         -5.7274    8.6606    6.2487 O.3       1 <0>         0.1363
     35 N4         -5.4141    7.5119    6.4586 N.2       1 <0>        -0.3215
     36 C22        -7.5466   10.0109    5.0884 C.3       1 <0>         0.1597
     37 O10        -8.4868   10.4149    6.0859 O.3       1 <0>        -0.5648
     38 H2         -0.6046    5.1861   -0.6792 H         1 <0>         0.0691
     39 H3          0.0624    3.9979   -1.8244 H         1 <0>         0.0852
     40 H4         -1.4742    3.6644   -0.9901 H         1 <0>         0.0699
     41 H5          0.3897    2.3898    0.0345 H         1 <0>         0.0769
     42 H6          1.2593    3.9115    0.3455 H         1 <0>         0.0764
     43 H7         -0.2998    1.5899    5.2848 H         1 <0>         0.1156
     44 H8          0.9330    2.8896    5.3705 H         1 <0>         0.1178
     45 H9         -2.0309    1.7110    7.0451 H         1 <0>         0.0997
     46 H10        -0.4976    2.0956    7.8631 H         1 <0>         0.1070
     47 H11         1.6089    3.1152   10.1698 H         1 <0>         0.1018
     48 H12         0.1624    3.0038   11.2011 H         1 <0>         0.0512
     49 H13         0.2888    2.0034    9.7343 H         1 <0>         0.0522
     50 H14        -2.7970    7.3270   11.2021 H         1 <0>         0.0919
     51 H15        -2.8185    6.5735   12.8271 H         1 <0>         0.1392
     52 H16        -5.9235    2.1758   10.0197 H         1 <0>         0.0530
     53 H17        -6.0449    3.4276   11.2792 H         1 <0>         0.0518
     54 H18        -7.3420    3.2497   10.0733 H         1 <0>         0.0998
     55 H19        -4.1192    1.5165    7.3039 H         1 <0>         0.1924
     56 H20        -4.6580    5.0977    7.2402 H         1 <0>         0.3957
     57 H21        -8.1255    7.1504    4.7324 H         1 <0>         0.1863
     58 H22        -6.8065   10.7984    4.9465 H         1 <0>         0.0773
     59 H23        -8.0690    9.8296    4.1491 H         1 <0>         0.0891
     60 H24        -8.9693   11.2238    5.8670 H         1 <0>         0.3939
@<TRIPOS>BOND
     1    1    2 1
     2    1   38 1
     3    1   39 1
     4    1   40 1
     5    2    3 1
     6    2   41 1
     7    2   42 1
     8    3    4 1
     9    4    5 2
    10    4    6 1
    11    6   11 1
    12    6    7 2
    13    7    8 1
    14    8    9 1
    15    9   10 1
    16    9   11 1
    17    9   12 1
    18   11   43 1
    19   11   44 1
    20   12   13 1
    21   12   45 1
    22   12   46 1
    23   13   18 ar
    24   13   14 ar
    25   14   15 ar
    26   14   26 1
    27   15   16 ar
    28   15   24 1
    29   16   23 1
    30   16   17 ar
    31   17   18 ar
    32   17   21 1
    33   18   19 1
    34   19   20 1
    35   20   47 1
    36   20   48 1
    37   20   49 1
    38   21   22 1
    39   22   23 1
    40   22   50 1
    41   22   51 1
    42   24   25 1
    43   25   52 1
    44   25   53 1
    45   25   54 1
    46   26   27 2
    47   26   55 1
    48   27   28 1
    49   28   29 am
    50   28   56 1
    51   29   30 2
    52   29   31 1
    53   31   35 2
    54   31   32 1
    55   32   33 2
    56   32   57 1
    57   33   34 1
    58   33   36 1
    59   34   35 1
    60   36   37 1
    61   36   58 1
    62   36   59 1
    63   37   60 1
