@<TRIPOS>MOLECULE
ZINC24275942
   52    53     0     0     0
SMALL
USER_CHARGES
N-[2-[(2-cyanophenyl)methylsulfanyl]ethyl]-3-[(2-nitro-4-sulfamoyl-phenyl)amino]propanamide
@<TRIPOS>ATOM
      1 C1         -1.4626    1.1915    0.2383 C.ar      1 <0>        -0.0878
      2 C2         -2.5039    0.2864    0.1309 C.ar      1 <0>        -0.1116
      3 C3         -2.2398   -1.0600   -0.0097 C.ar      1 <0>        -0.0698
      4 C4         -0.9180   -1.5102   -0.0331 C.ar      1 <0>        -0.0122
      5 C5          0.1277   -0.5916    0.0753 C.ar      1 <0>        -0.0311
      6 C6         -0.1508    0.7529    0.2105 C.ar      1 <0>        -0.0995
      7 C7          1.5573   -1.0673    0.0443 C.3       1 <0>        -0.0597
      8 S1          2.1525   -1.0821   -1.6692 S.3       1 <0>        -0.2163
      9 C8          3.8633   -1.6700   -1.5344 C.3       1 <0>        -0.1115
     10 C9          4.4929   -1.7308   -2.9275 C.3       1 <0>         0.1386
     11 N1          5.8746   -2.2056   -2.8187 N.am      1 <0>        -0.7380
     12 C10         6.6304   -2.3395   -3.9265 C.2       1 <0>         0.5229
     13 O1          6.1668   -2.0669   -5.0135 O.2       1 <0>        -0.5365
     14 C11         8.0517   -2.8279   -3.8145 C.3       1 <0>        -0.1550
     15 C12         8.6813   -2.8887   -5.2076 C.3       1 <0>         0.1268
     16 N2         10.0630   -3.3635   -5.0987 N.pl3     1 <0>        -0.7269
     17 C13        10.8463   -3.5022   -6.2468 C.ar      1 <0>         0.3285
     18 C14        10.2826   -3.3084   -7.5018 C.ar      1 <0>        -0.2125
     19 C15        11.0598   -3.4464   -8.6347 C.ar      1 <0>         0.0714
     20 C16        12.3980   -3.7772   -8.5212 C.ar      1 <0>        -0.7213
     21 C17        12.9621   -3.9708   -7.2738 C.ar      1 <0>         0.0849
     22 C18        12.1917   -3.8287   -6.1361 C.ar      1 <0>        -0.1381
     23 N3         12.7978   -4.0301   -4.8010 N.pl3     1 <0>         0.0380
     24 O2         12.4608   -3.3253   -3.8666 O.2       1 <0>        -0.1796
     25 O3         13.6337   -4.9007   -4.6367 O.3       1 <0>        -0.1377
     26 S2         13.3859   -3.9528   -9.9695 S.o2      1 <0>         2.6448
     27 O4         14.4718   -4.8002   -9.6202 O.2       1 <0>        -0.9811
     28 O5         12.4952   -4.2558  -11.0345 O.2       1 <0>        -0.9461
     29 N4         14.0343   -2.4660  -10.3033 N.pl3     1 <0>        -1.1626
     30 C19        -0.6364   -2.9072   -0.1737 C.1       1 <0>         0.2489
     31 N5         -0.4130   -4.0154   -0.2851 N.1       1 <0>        -0.4043
     32 H1         -1.6750    2.2451    0.3440 H         1 <0>         0.1357
     33 H2         -3.5257    0.6356    0.1529 H         1 <0>         0.1376
     34 H3         -3.0533   -1.7649   -0.0976 H         1 <0>         0.1368
     35 H4          0.6571    1.4647    0.2945 H         1 <0>         0.1372
     36 H5          2.1824   -0.3892    0.6438 H         1 <0>         0.1042
     37 H6          1.6147   -2.0836    0.4612 H         1 <0>         0.0918
     38 H7          4.4396   -0.9792   -0.9014 H         1 <0>         0.0926
     39 H8          3.8718   -2.6736   -1.0841 H         1 <0>         0.0899
     40 H9          3.9166   -2.4216   -3.5605 H         1 <0>         0.0783
     41 H10         4.4844   -0.7272   -3.3778 H         1 <0>         0.0799
     42 H11         6.2952   -2.4528   -1.8328 H         1 <0>         0.4247
     43 H12         8.6280   -2.1371   -3.1815 H         1 <0>         0.1094
     44 H13         8.0602   -3.8315   -3.3642 H         1 <0>         0.1051
     45 H14         8.1050   -3.5795   -5.8406 H         1 <0>         0.0826
     46 H15         8.6728   -1.8851   -5.6579 H         1 <0>         0.0856
     47 H16        10.4835   -3.6107   -4.1128 H         1 <0>         0.4372
     48 H17         9.2379   -3.0497   -7.5911 H         1 <0>         0.1564
     49 H18        10.6224   -3.2955   -9.6106 H         1 <0>         0.1602
     50 H19        14.0074   -4.2286   -7.1887 H         1 <0>         0.1633
     51 H20        14.6609   -2.5333  -11.2049 H         1 <0>         0.4165
     52 H21        14.6491   -2.1349   -9.4534 H         1 <0>         0.4093
@<TRIPOS>BOND
     1    1    6 ar
     2    1    2 ar
     3    1   32 1
     4    2    3 ar
     5    2   33 1
     6    3    4 ar
     7    3   34 1
     8    4    5 ar
     9    4   30 1
    10    5    6 ar
    11    5    7 1
    12    6   35 1
    13    7    8 1
    14    7   36 1
    15    7   37 1
    16    8    9 1
    17    9   10 1
    18    9   38 1
    19    9   39 1
    20   10   11 1
    21   10   40 1
    22   10   41 1
    23   11   12 am
    24   11   42 1
    25   12   13 2
    26   12   14 1
    27   14   15 1
    28   14   43 1
    29   14   44 1
    30   15   16 1
    31   15   45 1
    32   15   46 1
    33   16   17 1
    34   16   47 1
    35   17   22 ar
    36   17   18 ar
    37   18   19 ar
    38   18   48 1
    39   19   20 ar
    40   19   49 1
    41   20   21 ar
    42   20   26 1
    43   21   22 ar
    44   21   50 1
    45   22   23 1
    46   23   24 2
    47   23   25 1
    48   26   27 2
    49   26   28 2
    50   26   29 1
    51   29   51 1
    52   29   52 1
    53   30   31 3
