@<TRIPOS>MOLECULE
ZINC25024691
   50    52     0     0     0
SMALL
USER_CHARGES
[(1S)-2-(methylcarbamoylamino)-2-oxo-1-phenyl-ethyl] 3-(4-fluorophenyl)-2-methylsulfanyl-imidazole-4-carboxylate
@<TRIPOS>ATOM
      1 C1         -7.9886    2.1017   -2.2313 C.3       1 <0>         0.1045
      2 N1         -6.9144    1.3752   -1.5497 N.am      1 <0>        -0.7516
      3 C2         -5.6938    1.9340   -1.4294 C.2       1 <0>         0.6979
      4 O1         -5.4843    3.0406   -1.8862 O.2       1 <0>        -0.5316
      5 N2         -4.7056    1.2656   -0.8023 N.am      1 <0>        -0.6970
      6 C3         -3.4850    1.8244   -0.6819 C.2       1 <0>         0.5321
      7 O2         -3.2761    2.9282   -1.1377 O.2       1 <0>        -0.4379
      8 C4         -2.3800    1.0771    0.0192 C.3       1 <0>         0.1189
      9 H1         -2.1366    0.1463   -0.5140 H         1 <0>         0.1258
     10 C5         -2.7908    0.7901    1.4404 C.ar      1 <0>        -0.1216
     11 C6         -2.6816    1.7754    2.4038 C.ar      1 <0>        -0.0870
     12 C7         -3.0626    1.5134    3.7066 C.ar      1 <0>        -0.1170
     13 C8         -3.5437    0.2633    4.0480 C.ar      1 <0>        -0.1046
     14 C9         -3.6484   -0.7235    3.0855 C.ar      1 <0>        -0.1166
     15 C10        -3.2716   -0.4602    1.7819 C.ar      1 <0>        -0.1006
     16 O3         -1.1923    1.8716    0.0179 O.3       1 <0>        -0.3196
     17 C11        -0.0144    1.2127    0.0087 C.2       1 <0>         0.5508
     18 O4          0.0021   -0.0041    0.0020 O.2       1 <0>        -0.4898
     19 C12         1.2028    1.9378    0.0010 C.2       1 <0>        -0.0860
     20 C13         2.4787    1.4137   -0.0145 C.2       1 <0>         0.1200
     21 N3          3.3403    2.4274   -0.0176 N.2       1 <0>        -0.4891
     22 C14         2.6875    3.5730   -0.0049 C.2       1 <0>         0.2381
     23 N4          1.3510    3.3220    0.0014 N.pl3     1 <0>        -0.3699
     24 C15         0.3214    4.2733    0.0094 C.ar      1 <0>         0.0819
     25 C16        -0.5378    4.3768   -1.0762 C.ar      1 <0>        -0.0365
     26 C17        -1.5554    5.3105   -1.0637 C.ar      1 <0>        -0.1117
     27 C18        -1.7114    6.1514    0.0255 C.ar      1 <0>         0.1210
     28 C19        -0.8519    6.0535    1.1068 C.ar      1 <0>        -0.1454
     29 C20         0.1631    5.1169    1.1007 C.ar      1 <0>        -0.0718
     30 F1         -2.7037    7.0682    0.0333 F         1 <0>        -0.1314
     31 S1          3.4278    5.1720   -0.0042 S.3       1 <0>         0.0089
     32 C21         5.1773    4.7083   -0.0238 C.3       1 <0>        -0.1444
     33 H2         -8.9029    1.4901   -2.2302 H         1 <0>         0.0809
     34 H3         -7.6887    2.3111   -3.2687 H         1 <0>         0.0603
     35 H4         -8.1806    3.0493   -1.7067 H         1 <0>         0.0601
     36 H5         -7.1040    0.3737   -1.1361 H         1 <0>         0.4206
     37 H6         -4.8953    0.2641   -0.3888 H         1 <0>         0.4323
     38 H7         -2.3019    2.7508    2.1380 H         1 <0>         0.1249
     39 H8         -2.9811    2.2845    4.4585 H         1 <0>         0.1266
     40 H9         -3.8382    0.0576    5.0665 H         1 <0>         0.1269
     41 H10        -4.0243   -1.7002    3.3522 H         1 <0>         0.1298
     42 H11        -3.3530   -1.2312    1.0300 H         1 <0>         0.1292
     43 H12         2.7336    0.3643   -0.0227 H         1 <0>         0.1978
     44 H13        -0.4133    3.7247   -1.9280 H         1 <0>         0.1330
     45 H14        -2.2270    5.3881   -1.9059 H         1 <0>         0.1474
     46 H15        -0.9751    6.7102    1.9553 H         1 <0>         0.1460
     47 H16         0.8335    5.0411    1.9440 H         1 <0>         0.1390
     48 H17         5.7974    5.6168   -0.0254 H         1 <0>         0.1137
     49 H18         5.3900    4.1176   -0.9271 H         1 <0>         0.0964
     50 H19         5.4077    4.1086    0.8691 H         1 <0>         0.0964
@<TRIPOS>BOND
     1    1    2 1
     2    1   33 1
     3    1   34 1
     4    1   35 1
     5    2    3 am
     6    2   36 1
     7    3    4 2
     8    3    5 am
     9    5    6 am
    10    5   37 1
    11    6    7 2
    12    6    8 1
    13    8    9 1
    14    8   10 1
    15    8   16 1
    16   10   15 ar
    17   10   11 ar
    18   11   12 ar
    19   11   38 1
    20   12   13 ar
    21   12   39 1
    22   13   14 ar
    23   13   40 1
    24   14   15 ar
    25   14   41 1
    26   15   42 1
    27   16   17 1
    28   17   18 2
    29   17   19 1
    30   19   23 1
    31   19   20 2
    32   20   21 1
    33   20   43 1
    34   21   22 2
    35   22   23 1
    36   22   31 1
    37   23   24 1
    38   24   29 ar
    39   24   25 ar
    40   25   26 ar
    41   25   44 1
    42   26   27 ar
    43   26   45 1
    44   27   28 ar
    45   27   30 1
    46   28   29 ar
    47   28   46 1
    48   29   47 1
    49   31   32 1
    50   32   48 1
    51   32   49 1
    52   32   50 1
