@<TRIPOS>MOLECULE
ZINC40015369
   63    67     0     0     0
SMALL
USER_CHARGES

@<TRIPOS>ATOM
      1 C1         -5.1861    0.7999   -3.7226 C.3       1 <0>        -0.1541
      2 C2         -5.0000   -0.7184   -3.7545 C.3       1 <0>         0.0600
      3 O1         -3.6051   -1.0268   -3.7891 O.3       1 <0>        -0.3494
      4 C3         -3.2688   -2.3259   -3.8200 C.2       1 <0>         0.4640
      5 O2         -4.1302   -3.1732   -3.8179 O.2       1 <0>        -0.5030
      6 C4         -1.8168   -2.7276   -3.8575 C.3       1 <0>        -0.0814
      7 C5         -1.1584   -2.1438   -5.1096 C.3       1 <0>        -0.1279
      8 C6          0.3252   -2.5251   -5.1266 C.3       1 <0>         0.1108
      9 N1          0.4395   -3.9853   -5.0098 N.am      1 <0>        -0.5956
     10 C7         -0.2334   -4.6593   -3.8910 C.3       1 <0>         0.0990
     11 C8         -1.7108   -4.2540   -3.8880 C.3       1 <0>        -0.1201
     12 C9          1.1478   -4.6929   -5.9120 C.2       1 <0>         0.5751
     13 O3          1.6128   -4.1390   -6.8900 O.2       1 <0>        -0.5158
     14 C10         1.3587   -6.1359   -5.7138 C.ar      1 <0>        -0.2658
     15 C11         1.9093   -6.6122   -4.5220 C.ar      1 <0>         0.1464
     16 C12         2.0869   -7.9870   -4.3879 C.ar      1 <0>        -0.3080
     17 C13         1.7100   -8.8549   -5.4484 C.ar      1 <0>         0.4794
     18 N2          1.8892  -10.1714   -5.2998 N.2       1 <0>        -0.5733
     19 C14         2.4076  -10.6949   -4.1947 C.2       1 <0>         0.4614
     20 C15         2.5621  -12.0961   -4.1220 C.2       1 <0>        -0.1488
     21 C16         3.0906  -12.6575   -3.0010 C.2       1 <0>         0.0177
     22 C17         3.4763  -11.8375   -1.9296 C.2       1 <0>        -0.1488
     23 C18         3.3225  -10.4984   -2.0125 C.2       1 <0>         0.1135
     24 N3          2.7944   -9.9232   -3.1319 N.am      1 <0>        -0.4413
     25 C19         2.6568   -8.5771   -3.1757 C.2       1 <0>         0.5625
     26 O4          2.9965   -7.8799   -2.2373 O.2       1 <0>        -0.4423
     27 N4          1.1875   -8.3529   -6.5690 N.ar      1 <0>        -0.4214
     28 C20         1.0011   -7.0557   -6.7246 C.ar      1 <0>         0.5471
     29 N5          0.4515   -6.5883   -7.8998 N.pl3     1 <0>        -0.7926
     30 C21         0.8059   -9.2644   -7.6505 C.3       1 <0>         0.1155
     31 C22        -0.6274   -9.6915   -7.4653 C.ar      1 <0>        -0.2017
     32 C23        -0.9331  -10.8185   -6.7172 C.ar      1 <0>        -0.0338
     33 C24        -2.2654  -11.1736   -6.5737 C.ar      1 <0>        -0.1683
     34 C25        -3.2379  -10.3982   -7.1768 C.ar      1 <0>         0.1301
     35 N6         -2.9102   -9.3330   -7.8815 N.ar      1 <0>        -0.4732
     36 C26        -1.6539   -8.9619   -8.0340 C.ar      1 <0>         0.1203
     37 H1         -4.7019    1.2067   -2.8347 H         1 <0>         0.0684
     38 H2         -4.7388    1.2396   -4.6140 H         1 <0>         0.0680
     39 H3         -6.2501    1.0351   -3.6962 H         1 <0>         0.0830
     40 H4         -5.4474   -1.1581   -2.8630 H         1 <0>         0.0694
     41 H5         -5.4842   -1.1252   -4.6423 H         1 <0>         0.0687
     42 H6         -1.3115   -2.3461   -2.9703 H         1 <0>         0.1175
     43 H7         -1.6471   -2.5441   -5.9979 H         1 <0>         0.0765
     44 H8         -1.2549   -1.0581   -5.0988 H         1 <0>         0.1011
     45 H9          0.7761   -2.1970   -6.0631 H         1 <0>         0.1090
     46 H10         0.8341   -2.0505   -4.2876 H         1 <0>         0.0872
     47 H11        -0.1511   -5.7394   -4.0124 H         1 <0>         0.0838
     48 H12         0.2299   -4.3587   -2.9513 H         1 <0>         0.0896
     49 H13        -2.2004   -4.6704   -3.0076 H         1 <0>         0.0938
     50 H14        -2.1943   -4.6345   -4.7877 H         1 <0>         0.0795
     51 H15         2.1892   -5.9350   -3.7287 H         1 <0>         0.1824
     52 H16         2.2620  -12.7192   -4.9515 H         1 <0>         0.1825
     53 H17         3.2123  -13.7287   -2.9360 H         1 <0>         0.1730
     54 H18         3.8964  -12.2779   -1.0374 H         1 <0>         0.1797
     55 H19         3.6217   -9.8749   -1.1830 H         1 <0>         0.1991
     56 H20         0.3794   -5.6336   -8.0555 H         1 <0>         0.4466
     57 H21         0.9126   -8.7561   -8.6087 H         1 <0>         0.1210
     58 H22         1.4520  -10.1421   -7.6308 H         1 <0>         0.1508
     59 H23        -0.1519  -11.4056   -6.2576 H         1 <0>         0.1490
     60 H24        -2.5401  -12.0454   -5.9983 H         1 <0>         0.1483
     61 H25        -4.2782  -10.6681   -7.0698 H         1 <0>         0.1691
     62 H26        -1.4244   -8.0803   -8.6140 H         1 <0>         0.1462
     63 H27         0.1370   -7.2142   -8.5708 H         1 <0>         0.4202
@<TRIPOS>BOND
     1    1    2 1
     2    1   37 1
     3    1   38 1
     4    1   39 1
     5    2    3 1
     6    2   40 1
     7    2   41 1
     8    3    4 1
     9    4    5 2
    10    4    6 1
    11    6   11 1
    12    6    7 1
    13    6   42 1
    14    7    8 1
    15    7   43 1
    16    7   44 1
    17    8    9 1
    18    8   45 1
    19    8   46 1
    20    9   10 1
    21    9   12 am
    22   10   11 1
    23   10   47 1
    24   10   48 1
    25   11   49 1
    26   11   50 1
    27   12   13 2
    28   12   14 1
    29   14   28 ar
    30   14   15 ar
    31   15   16 ar
    32   15   51 1
    33   16   25 1
    34   16   17 ar
    35   17   18 1
    36   17   27 ar
    37   18   19 2
    38   19   24 1
    39   19   20 1
    40   20   21 2
    41   20   52 1
    42   21   22 1
    43   21   53 1
    44   22   23 2
    45   22   54 1
    46   23   24 1
    47   23   55 1
    48   24   25 am
    49   25   26 2
    50   27   28 ar
    51   27   30 1
    52   28   29 1
    53   29   56 1
    54   29   63 1
    55   30   31 1
    56   30   57 1
    57   30   58 1
    58   31   36 ar
    59   31   32 ar
    60   32   33 ar
    61   32   59 1
    62   33   34 ar
    63   33   60 1
    64   34   35 ar
    65   34   61 1
    66   35   36 ar
    67   36   62 1
