@<TRIPOS>MOLECULE
ZINC35331971
   32    33     0     0     0
SMALL
USER_CHARGES

@<TRIPOS>ATOM
      1 C1          4.9864   -3.5750    2.6503 C.3       1 <0>        -0.1126
      2 C2          3.6679   -3.7230    1.9356 C.ar      1 <0>        -0.1107
      3 C3          3.6391   -4.1615    0.6244 C.ar      1 <0>        -0.0672
      4 C4          2.4322   -4.2986   -0.0333 C.ar      1 <0>        -0.1806
      5 C5          1.2475   -3.9960    0.6226 C.ar      1 <0>         0.1351
      6 C6          1.2788   -3.5560    1.9389 C.ar      1 <0>        -0.1172
      7 C7          2.4891   -3.4256    2.5938 C.ar      1 <0>        -0.0575
      8 Br1        -0.3330   -3.1422    2.8371 Br        1 <0>        -0.0331
      9 O1          0.0589   -4.1296   -0.0225 O.3       1 <0>        -0.2368
     10 C8          0.0674   -4.6657   -1.2701 C.ar      1 <0>         0.0188
     11 C9          0.1154   -3.8346   -2.3808 C.ar      1 <0>        -0.0778
     12 C10         0.1242   -4.3735   -3.6492 C.ar      1 <0>        -0.1347
     13 C11         0.0848   -5.7595   -3.8205 C.ar      1 <0>        -0.0837
     14 C12         0.0364   -6.5977   -2.7037 C.ar      1 <0>        -0.1285
     15 C13         0.0335   -6.0515   -1.4330 C.ar      1 <0>         0.2130
     16 N1         -0.0086   -6.8877   -0.3114 N.pl3     1 <0>        -0.8633
     17 C14         0.0937   -6.3372   -5.1788 C.2       1 <0>         0.5628
     18 O2          0.0593   -7.5436   -5.3266 O.2       1 <0>        -0.5356
     19 N2          0.1399   -5.5275   -6.2552 N.am      1 <0>        -0.8480
     20 H1          5.2387   -4.5129    3.1451 H         1 <0>         0.0728
     21 H2          5.7643   -3.3238    1.9293 H         1 <0>         0.0696
     22 H3          4.9097   -2.7813    3.3935 H         1 <0>         0.0694
     23 H4          4.5613   -4.3966    0.1139 H         1 <0>         0.1326
     24 H5          2.4107   -4.6408   -1.0575 H         1 <0>         0.1361
     25 H6          2.5141   -3.0873    3.6191 H         1 <0>         0.1402
     26 H7          0.1456   -2.7629   -2.2507 H         1 <0>         0.1397
     27 H8          0.1613   -3.7240   -4.5112 H         1 <0>         0.1332
     28 H9          0.0058   -7.6696   -2.8322 H         1 <0>         0.1441
     29 H10        -0.0143   -6.5041    0.5796 H         1 <0>         0.4042
     30 H11        -0.0322   -7.8507   -0.4250 H         1 <0>         0.4055
     31 H12         0.1674   -4.5651   -6.1373 H         1 <0>         0.4026
     32 H13         0.1458   -5.9071   -7.1478 H         1 <0>         0.4075
@<TRIPOS>BOND
     1    1    2 1
     2    1   20 1
     3    1   21 1
     4    1   22 1
     5    2    7 ar
     6    2    3 ar
     7    3    4 ar
     8    3   23 1
     9    4    5 ar
    10    4   24 1
    11    5    6 ar
    12    5    9 1
    13    6    7 ar
    14    6    8 1
    15    7   25 1
    16    9   10 1
    17   10   15 ar
    18   10   11 ar
    19   11   12 ar
    20   11   26 1
    21   12   13 ar
    22   12   27 1
    23   13   14 ar
    24   13   17 1
    25   14   15 ar
    26   14   28 1
    27   15   16 1
    28   16   29 1
    29   16   30 1
    30   17   18 2
    31   17   19 am
    32   19   31 1
    33   19   32 1
