@<TRIPOS>MOLECULE
ZINC63676453
   57    60     0     0     0
SMALL
USER_CHARGES

@<TRIPOS>ATOM
      1 C1         -0.0167    1.3781    0.0096 C.ar      1 <0>        -0.0573
      2 C2          1.1709    2.0855    0.0021 C.ar      1 <0>        -0.1374
      3 C3          2.3773    1.4107   -0.0130 C.ar      1 <0>        -0.0217
      4 C4          2.3960    0.0285   -0.0201 C.ar      1 <0>        -0.6829
      5 C5          1.2084   -0.6789   -0.0117 C.ar      1 <0>        -0.0214
      6 C6          0.0021   -0.0041    0.0020 C.ar      1 <0>        -0.1370
      7 S1          3.9337   -0.8316   -0.0405 S.o2      1 <0>         2.7110
      8 O1          3.6744   -2.1140   -0.5951 O.2       1 <0>        -0.9416
      9 O2          4.8903    0.0598   -0.5970 O.2       1 <0>        -0.9412
     10 N1          4.3776   -1.0785    1.5357 N.pl3     1 <0>        -1.0348
     11 C7          5.1879   -0.1759    2.3831 C.3       1 <0>         0.0851
     12 C8          4.8109   -0.6236    3.8176 C.3       1 <0>         0.0410
     13 O3          4.6555   -2.0534    3.6645 O.3       1 <0>        -0.3559
     14 C9          4.0403   -2.2371    2.3785 C.3       1 <0>         0.3058
     15 H1          2.9585   -2.3065    2.4925 H         1 <0>         0.1035
     16 C10         4.5734   -3.5177    1.7327 C.3       1 <0>         0.0815
     17 N2          6.0289   -3.4255    1.5942 N.am      1 <0>        -0.6867
     18 C11         6.7197   -4.4452    1.0471 C.2       1 <0>         0.5058
     19 O4          6.1360   -5.4397    0.6691 O.2       1 <0>        -0.5108
     20 C12         8.2045   -4.3511    0.9058 C.2       1 <0>         0.5155
     21 O5          8.7882   -3.3566    1.2837 O.2       1 <0>        -0.5087
     22 N3          8.8953   -5.3708    0.3586 N.am      1 <0>        -0.7077
     23 C13        10.3509   -5.2786    0.2201 C.3       1 <0>         0.1243
     24 C14        10.8839   -6.5592   -0.4256 C.3       1 <0>        -0.1071
     25 C15        12.3811   -6.4643   -0.5681 C.2       1 <0>         0.0711
     26 C16        13.3115   -6.9449    0.2880 C.ar      1 <0>        -0.1666
     27 C17        13.2118   -7.6708    1.5598 C.ar      1 <0>        -0.0124
     28 C18        14.3472   -8.0270    2.2025 C.ar      1 <0>        -0.1504
     29 C19        15.6137   -7.7207    1.6860 C.ar      1 <0>         0.0551
     30 C20        15.7859   -7.0564    0.5235 C.ar      1 <0>        -0.2101
     31 C21        14.6605   -6.6338   -0.2364 C.ar      1 <0>         0.3279
     32 N4         14.5677   -5.9862   -1.3724 N.pl3     1 <0>        -0.5845
     33 C22        13.1476   -5.8183   -1.7005 C.3       1 <0>         0.0600
     34 H2         -0.9591    1.9053    0.0259 H         1 <0>         0.1354
     35 H3          1.1563    3.1654    0.0076 H         1 <0>         0.1367
     36 H4          3.3051    1.9634   -0.0196 H         1 <0>         0.1396
     37 H5          1.2231   -1.7588   -0.0176 H         1 <0>         0.1413
     38 H6         -0.9258   -0.5567    0.0082 H         1 <0>         0.1372
     39 H7          6.2518   -0.3249    2.1991 H         1 <0>         0.0891
     40 H8          4.9081    0.8644    2.2171 H         1 <0>         0.0976
     41 H9          5.6131   -0.3937    4.5188 H         1 <0>         0.1157
     42 H10         3.8746   -0.1636    4.1337 H         1 <0>         0.0805
     43 H11         4.3215   -4.3729    2.3599 H         1 <0>         0.0998
     44 H12         4.1220   -3.6434    0.7486 H         1 <0>         0.1223
     45 H13         6.4954   -2.6305    1.8964 H         1 <0>         0.4140
     46 H14         8.4288   -6.1658    0.0565 H         1 <0>         0.4196
     47 H15        10.6027   -4.4234   -0.4071 H         1 <0>         0.0841
     48 H16        10.8022   -5.1529    1.2042 H         1 <0>         0.0850
     49 H17        10.6320   -7.4144    0.2015 H         1 <0>         0.1192
     50 H18        10.4325   -6.6849   -1.4098 H         1 <0>         0.1225
     51 H19        12.2461   -7.9166    1.9763 H         1 <0>         0.1613
     52 H20        14.2762   -8.5613    3.1384 H         1 <0>         0.1583
     53 H21        16.4876   -8.0284    2.2409 H         1 <0>         0.1612
     54 H22        16.7838   -6.8444    0.1688 H         1 <0>         0.1607
     55 H23        12.9162   -6.3154   -2.6426 H         1 <0>         0.1762
     56 H24        12.9017   -4.7583   -1.7641 H         1 <0>         0.1751
     57 H25        15.3134   -5.6738   -1.9084 H         1 <0>         0.4563
@<TRIPOS>BOND
     1    1    6 ar
     2    1    2 ar
     3    1   34 1
     4    2    3 ar
     5    2   35 1
     6    3    4 ar
     7    3   36 1
     8    4    5 ar
     9    4    7 1
    10    5    6 ar
    11    5   37 1
    12    6   38 1
    13    7    8 2
    14    7    9 2
    15    7   10 1
    16   10   14 1
    17   10   11 1
    18   11   12 1
    19   11   39 1
    20   11   40 1
    21   12   13 1
    22   12   41 1
    23   12   42 1
    24   13   14 1
    25   14   15 1
    26   14   16 1
    27   16   17 1
    28   16   43 1
    29   16   44 1
    30   17   18 am
    31   17   45 1
    32   18   19 2
    33   18   20 1
    34   20   21 2
    35   20   22 am
    36   22   23 1
    37   22   46 1
    38   23   24 1
    39   23   47 1
    40   23   48 1
    41   24   25 1
    42   24   49 1
    43   24   50 1
    44   25   33 1
    45   25   26 2
    46   26   31 ar
    47   26   27 ar
    48   27   28 ar
    49   27   51 1
    50   28   29 ar
    51   28   52 1
    52   29   30 ar
    53   29   53 1
    54   30   31 ar
    55   30   54 1
    56   31   32 2
    57   32   33 1
    58   32   57 1
    59   33   55 1
    60   33   56 1
