@<TRIPOS>MOLECULE
ZINC39628662
   75    78     0     0     0
SMALL
USER_CHARGES

@<TRIPOS>ATOM
      1 C1          2.7866   -1.3645   -2.3974 C.3       1 <0>        -0.1871
      2 C2          4.2472   -1.6111   -2.7806 C.3       1 <0>         0.0277
      3 H1          4.6599   -0.7107   -3.2356 H         1 <0>         0.1368
      4 C3          4.3235   -2.7676   -3.7796 C.3       1 <0>        -0.1422
      5 C4          5.7869   -3.0104   -4.1602 C.3       1 <0>        -0.1404
      6 C5          6.5955   -3.2868   -2.8894 C.3       1 <0>        -0.1464
      7 C6          6.4350   -2.1110   -1.9234 C.3       1 <0>        -0.0091
      8 N1          5.0178   -1.9480   -1.5776 N.4       1 <0>        -0.3803
      9 C7          4.8778   -0.8694   -0.5902 C.3       1 <0>        -0.0145
     10 C8          5.5765   -1.2739    0.7095 C.3       1 <0>        -0.1614
     11 C9          5.4307   -0.1505    1.7379 C.3       1 <0>         0.1202
     12 N2          6.0998   -0.5378    2.9823 N.am      1 <0>        -0.7347
     13 C10         6.1011    0.3021    4.0364 C.2       1 <0>         0.5242
     14 O1          5.5484    1.3786    3.9547 O.2       1 <0>        -0.5086
     15 C11         6.7894   -0.0963    5.3164 C.3       1 <0>        -0.1142
     16 H2          6.7723   -1.1798    5.4343 H         1 <0>         0.1132
     17 C12         6.1132    0.5871    6.5261 C.3       1 <0>         0.1086
     18 N3          7.2307    0.9214    7.4401 N.am      1 <0>        -0.6248
     19 C13         8.3207    1.3704    6.5409 C.3       1 <0>         0.1054
     20 C14         8.2376    0.4210    5.3292 C.3       1 <0>        -0.0729
     21 C15         8.5382    1.1823    4.0416 C.3       1 <0>        -0.1438
     22 C16        10.0006    1.6362    4.0519 C.3       1 <0>        -0.0092
     23 N4         10.8778    0.4650    4.1677 N.4       1 <0>        -0.5039
     24 C17        10.6470   -0.2083    5.4515 C.3       1 <0>        -0.0130
     25 C18         9.2120   -0.7404    5.5004 C.3       1 <0>        -0.1319
     26 C19         7.2516    0.8361    8.7850 C.2       1 <0>         0.5467
     27 O2          8.2507    1.1496    9.3970 O.2       1 <0>        -0.5186
     28 C20         6.0337    0.3512    9.5283 C.3       1 <0>        -0.1038
     29 C21         4.8542    1.2866    9.2448 C.3       1 <0>        -0.1525
     30 C22         3.6440    0.8322   10.0649 C.3       1 <0>         0.0612
     31 O3          3.9867    0.8232   11.4522 O.3       1 <0>        -0.3753
     32 C23         5.0522   -0.0692   11.7843 C.3       1 <0>         0.0586
     33 C24         6.3190    0.3490   11.0332 C.3       1 <0>        -0.1385
     34 H3          2.7316   -0.5400   -1.6866 H         1 <0>         0.0824
     35 H4          2.2142   -1.1132   -3.2903 H         1 <0>         0.1094
     36 H5          2.3734   -2.2647   -1.9423 H         1 <0>         0.0824
     37 H6          3.9112   -3.6687   -3.3255 H         1 <0>         0.0891
     38 H7          3.7521   -2.5153   -4.6729 H         1 <0>         0.1149
     39 H8          5.8521   -3.8695   -4.8279 H         1 <0>         0.0976
     40 H9          6.1846   -2.1275   -4.6605 H         1 <0>         0.0826
     41 H10         6.2304   -4.1987   -2.4168 H         1 <0>         0.0880
     42 H11         7.6481   -3.4056   -3.1464 H         1 <0>         0.1123
     43 H12         7.0096   -2.3045   -1.0176 H         1 <0>         0.1261
     44 H13         6.8006   -1.1998   -2.3969 H         1 <0>         0.1283
     45 H14         5.3334    0.0411   -0.9795 H         1 <0>         0.1338
     46 H15         3.8204   -0.6914   -0.3940 H         1 <0>         0.1408
     47 H16         5.1209   -2.1843    1.0988 H         1 <0>         0.0965
     48 H17         6.6338   -1.4519    0.5133 H         1 <0>         0.0918
     49 H18         5.8863    0.7599    1.3486 H         1 <0>         0.0814
     50 H19         4.3734    0.0275    1.9341 H         1 <0>         0.0845
     51 H20         6.5418   -1.3987    3.0477 H         1 <0>         0.4029
     52 H21         5.5962    1.4934    6.2105 H         1 <0>         0.1014
     53 H22         5.4182   -0.0987    7.0105 H         1 <0>         0.0963
     54 H23         8.1561    2.4019    6.2292 H         1 <0>         0.0852
     55 H24         9.2870    1.2710    7.0354 H         1 <0>         0.0909
     56 H25         8.3654    0.5308    3.1850 H         1 <0>         0.0915
     57 H26         7.8871    2.0538    3.9738 H         1 <0>         0.1251
     58 H27        10.2228    2.1661    3.1256 H         1 <0>         0.1396
     59 H28        10.1685    2.3009    4.8993 H         1 <0>         0.1361
     60 H29        10.6822   -0.1759    3.4133 H         1 <0>         0.4245
     61 H30        11.3458   -1.0382    5.5570 H         1 <0>         0.1421
     62 H31        10.7995    0.5002    6.2657 H         1 <0>         0.1365
     63 H32         9.0359   -1.2244    6.4610 H         1 <0>         0.1194
     64 H33         9.0636   -1.4614    4.6965 H         1 <0>         0.0935
     65 H34         5.7860   -0.6591    9.2026 H         1 <0>         0.0994
     66 H35         5.1220    2.3055    9.5245 H         1 <0>         0.0815
     67 H36         4.6088    1.2518    8.1833 H         1 <0>         0.0779
     68 H37         2.8143    1.5194    9.8998 H         1 <0>         0.1018
     69 H38         3.3519   -0.1715    9.7562 H         1 <0>         0.0533
     70 H39         5.2369   -0.0312   12.8579 H         1 <0>         0.1047
     71 H40         4.7785   -1.0847   11.4981 H         1 <0>         0.0536
     72 H41         7.1211   -0.3562   11.2509 H         1 <0>         0.0828
     73 H42         6.6163    1.3490   11.3491 H         1 <0>         0.0840
     74 H43         4.6669   -2.8085   -1.1847 H         1 <0>         0.4212
     75 H44        11.8408    0.7609    4.1129 H         1 <0>         0.4372
@<TRIPOS>BOND
     1    1    2 1
     2    1   34 1
     3    1   35 1
     4    1   36 1
     5    2    3 1
     6    2    8 1
     7    2    4 1
     8    4    5 1
     9    4   37 1
    10    4   38 1
    11    5    6 1
    12    5   39 1
    13    5   40 1
    14    6    7 1
    15    6   41 1
    16    6   42 1
    17    7    8 1
    18    7   43 1
    19    7   44 1
    20    8    9 1
    21    8   74 1
    22    9   10 1
    23    9   45 1
    24    9   46 1
    25   10   11 1
    26   10   47 1
    27   10   48 1
    28   11   12 1
    29   11   49 1
    30   11   50 1
    31   12   13 am
    32   12   51 1
    33   13   14 2
    34   13   15 1
    35   15   16 1
    36   15   20 1
    37   15   17 1
    38   17   18 1
    39   17   52 1
    40   17   53 1
    41   18   19 1
    42   18   26 am
    43   19   20 1
    44   19   54 1
    45   19   55 1
    46   20   25 1
    47   20   21 1
    48   21   22 1
    49   21   56 1
    50   21   57 1
    51   22   23 1
    52   22   58 1
    53   22   59 1
    54   23   24 1
    55   23   60 1
    56   23   75 1
    57   24   25 1
    58   24   61 1
    59   24   62 1
    60   25   63 1
    61   25   64 1
    62   26   27 2
    63   26   28 1
    64   28   33 1
    65   28   29 1
    66   28   65 1
    67   29   30 1
    68   29   66 1
    69   29   67 1
    70   30   31 1
    71   30   68 1
    72   30   69 1
    73   31   32 1
    74   32   33 1
    75   32   70 1
    76   32   71 1
    77   33   72 1
    78   33   73 1
