@<TRIPOS>MOLECULE
ZINC61635955
   52    54     0     0     0
SMALL
USER_CHARGES

@<TRIPOS>ATOM
      1 C1         -0.0178    1.4648    0.0101 C.3       1 <0>        -0.0463
      2 N1          0.0021   -0.0041    0.0020 N.4       1 <0>        -0.3840
      3 C2          0.7126   -0.4907    1.1921 C.3       1 <0>        -0.0555
      4 C3         -1.3761   -0.5125    0.0124 C.3       1 <0>        -0.0265
      5 C4         -1.3584   -2.0365   -0.1216 C.3       1 <0>         0.1256
      6 N2         -2.7328   -2.5436   -0.1112 N.pl3     1 <0>        -0.3894
      7 C5         -3.3001   -3.3348   -1.0584 C.2       1 <0>         0.0277
      8 C6         -4.5796   -3.5794   -0.6751 C.2       1 <0>         0.0180
      9 C7         -4.7975   -2.9171    0.5421 C.2       1 <0>         0.0760
     10 N3         -3.6926   -2.3034    0.8802 N.2       1 <0>        -0.2833
     11 N4         -5.5195   -4.3581   -1.3745 N.am      1 <0>        -0.6272
     12 C8         -6.7623   -4.5204   -0.8790 C.2       1 <0>         0.5869
     13 O1         -7.0714   -3.9934    0.1735 O.2       1 <0>        -0.5010
     14 C9         -7.7426   -5.3325   -1.6084 C.2       1 <0>         0.0844
     15 N5         -7.4022   -5.8945   -2.7266 N.2       1 <0>        -0.2047
     16 N6         -8.3104   -6.6741   -3.4501 N.am      1 <0>        -0.4423
     17 C10        -9.6349   -6.5576   -3.2312 C.2       1 <0>         0.4986
     18 O2        -10.4180   -7.2324   -3.8649 O.2       1 <0>        -0.4952
     19 C11       -10.1395   -5.5853   -2.1953 C.3       1 <0>        -0.1413
     20 C12        -9.1279   -5.5070   -1.0455 C.3       1 <0>        -0.1077
     21 C13        -7.8188   -7.6228   -4.4523 C.3       1 <0>         0.1531
     22 C14        -6.8714   -8.6356   -3.7880 C.3       1 <0>        -0.1359
     23 C15        -6.1047   -9.4307   -4.8722 C.3       1 <0>        -0.5747
     24 S1         -6.0435   -8.2439   -6.2759 S.o2      1 <0>         2.3761
     25 O3         -6.7602   -8.7901   -7.3747 O.2       1 <0>        -0.9224
     26 O4         -4.7015   -7.8148   -6.4603 O.2       1 <0>        -0.9297
     27 C16        -7.0217   -6.8616   -5.5498 C.3       1 <0>        -0.5924
     28 H1          1.0047    1.8421    0.0024 H         1 <0>         0.1286
     29 H2         -0.5450    1.8259   -0.8730 H         1 <0>         0.1246
     30 H3         -0.5280    1.8163    0.9069 H         1 <0>         0.1244
     31 H4          1.7352   -0.1134    1.1844 H         1 <0>         0.1293
     32 H5          0.2024   -0.1392    2.0889 H         1 <0>         0.1265
     33 H6          0.7273   -1.5806    1.1861 H         1 <0>         0.1239
     34 H7         -1.8584   -0.2358    0.9500 H         1 <0>         0.1449
     35 H8         -1.9290   -0.0808   -0.8218 H         1 <0>         0.1372
     36 H9         -0.8762   -2.3132   -1.0592 H         1 <0>         0.1167
     37 H10        -0.8055   -2.4683    0.7126 H         1 <0>         0.1055
     38 H11        -2.8208   -3.7022   -1.9537 H         1 <0>         0.1862
     39 H12        -5.7188   -2.9168    1.1056 H         1 <0>         0.2150
     40 H13        -5.2732   -4.7781   -2.2134 H         1 <0>         0.4232
     41 H14       -10.2586   -4.6007   -2.6474 H         1 <0>         0.1137
     42 H15       -11.0999   -5.9288   -1.8108 H         1 <0>         0.1275
     43 H16        -9.1682   -6.4247   -0.4587 H         1 <0>         0.1080
     44 H17        -9.3700   -4.6574   -0.4070 H         1 <0>         0.1212
     45 H18        -8.6595   -8.1481   -4.9055 H         1 <0>         0.1387
     46 H19        -6.1587   -8.1044   -3.1570 H         1 <0>         0.0955
     47 H20        -7.4513   -9.3258   -3.1754 H         1 <0>         0.1022
     48 H21        -5.0994   -9.6784   -4.5314 H         1 <0>         0.1484
     49 H22        -6.6523  -10.3310   -5.1509 H         1 <0>         0.1468
     50 H23        -7.6909   -6.4214   -6.2891 H         1 <0>         0.1479
     51 H24        -6.3704   -6.1057   -5.1111 H         1 <0>         0.1495
     52 H25         0.4744   -0.3295   -0.8281 H         1 <0>         0.4278
@<TRIPOS>BOND
     1    1    2 1
     2    1   28 1
     3    1   29 1
     4    1   30 1
     5    2    3 1
     6    2    4 1
     7    2   52 1
     8    3   31 1
     9    3   32 1
    10    3   33 1
    11    4    5 1
    12    4   34 1
    13    4   35 1
    14    5    6 1
    15    5   36 1
    16    5   37 1
    17    6   10 1
    18    6    7 1
    19    7    8 2
    20    7   38 1
    21    8    9 1
    22    8   11 1
    23    9   10 2
    24    9   39 1
    25   11   12 am
    26   11   40 1
    27   12   13 2
    28   12   14 1
    29   14   20 1
    30   14   15 2
    31   15   16 1
    32   16   17 am
    33   16   21 1
    34   17   18 2
    35   17   19 1
    36   19   20 1
    37   19   41 1
    38   19   42 1
    39   20   43 1
    40   20   44 1
    41   21   27 1
    42   21   22 1
    43   21   45 1
    44   22   23 1
    45   22   46 1
    46   22   47 1
    47   23   24 1
    48   23   48 1
    49   23   49 1
    50   24   25 2
    51   24   26 2
    52   24   27 1
    53   27   50 1
    54   27   51 1
