@<TRIPOS>MOLECULE
ZINC38502152
   51    53     0     0     0
SMALL
USER_CHARGES

@<TRIPOS>ATOM
      1 C1         -0.7221   -2.4236   -1.8486 C.3       1 <0>        -0.1579
      2 C2         -1.3744   -2.8987   -0.5488 C.3       1 <0>         0.1281
      3 C3         -1.9674   -4.2938   -0.7560 C.3       1 <0>        -0.1607
      4 N1         -0.3667   -2.9492    0.5133 N.pl3     1 <0>        -0.3323
      5 C4         -0.3973   -2.2508    1.6865 C.2       1 <0>        -0.0097
      6 C5          0.7374   -2.5925    2.3910 C.2       1 <0>        -0.1915
      7 C6          1.4528   -3.5086    1.6231 C.2       1 <0>         0.0340
      8 N2          0.7979   -3.7271    0.5105 N.2       1 <0>        -0.2567
      9 C7         -1.4466   -1.3080    2.1183 C.2       1 <0>         0.5794
     10 O1         -1.3547   -0.7455    3.1964 O.2       1 <0>        -0.4628
     11 N3         -2.4993   -1.0701    1.3269 N.2       1 <0>        -0.5835
     12 C8         -3.5285   -1.9095    1.3205 C.2       1 <0>         0.4305
     13 N4         -3.7881   -2.9479    2.1633 N.pl3     1 <0>        -0.5300
     14 C9         -4.9266   -3.7174    1.9939 C.ar      1 <0>         0.1238
     15 C10        -5.3399   -4.8158    2.7682 C.ar      1 <0>        -0.0782
     16 C11        -6.5017   -5.4878    2.4789 C.ar      1 <0>        -0.0829
     17 C12        -7.3082   -5.1058    1.4121 C.ar      1 <0>         0.1504
     18 C13        -6.9231   -4.0235    0.6306 C.ar      1 <0>        -0.0701
     19 C14        -5.7592   -3.3545    0.9246 C.ar      1 <0>        -0.1384
     20 S1         -4.9258   -1.9575    0.2103 S.3       1 <0>         0.1285
     21 N5         -8.4904   -5.8019    1.1295 N.am      1 <0>        -0.6701
     22 C15        -9.1779   -6.3947    2.1258 C.2       1 <0>         0.5121
     23 O2         -8.8278   -6.2443    3.2773 O.2       1 <0>        -0.5206
     24 C16       -10.3814   -7.2445    1.8090 C.3       1 <0>        -0.1706
     25 C17        -2.8581   -3.2521    3.2536 C.3       1 <0>         0.0756
     26 C18        -3.1647   -2.3513    4.4517 C.3       1 <0>         0.0383
     27 O3         -4.4619   -2.6639    4.9631 O.3       1 <0>        -0.3855
     28 C19        -4.8480   -1.8749    6.0902 C.3       1 <0>         0.0337
     29 H1          0.0701   -3.1166   -2.1321 H         1 <0>         0.0714
     30 H2         -1.4719   -2.3860   -2.6389 H         1 <0>         0.0802
     31 H3         -0.2996   -1.4297   -1.7010 H         1 <0>         0.0632
     32 H4         -2.1665   -2.2056   -0.2654 H         1 <0>         0.1175
     33 H5         -1.1753   -4.9868   -1.0394 H         1 <0>         0.0745
     34 H6         -2.4322   -4.6322    0.1700 H         1 <0>         0.0535
     35 H7         -2.7172   -4.2561   -1.5462 H         1 <0>         0.0819
     36 H8          1.0210   -2.2170    3.3631 H         1 <0>         0.1604
     37 H9          2.3905   -3.9666    1.9016 H         1 <0>         0.1930
     38 H10        -4.7340   -5.1360    3.6030 H         1 <0>         0.1365
     39 H11        -6.7945   -6.3283    3.0906 H         1 <0>         0.1509
     40 H12        -7.5343   -3.7102   -0.2029 H         1 <0>         0.1446
     41 H13        -8.8143   -5.8573    0.2169 H         1 <0>         0.4157
     42 H14       -10.5402   -7.2620    0.7307 H         1 <0>         0.0804
     43 H15       -10.2140   -8.2599    2.1681 H         1 <0>         0.1020
     44 H16       -11.2607   -6.8262    2.2989 H         1 <0>         0.1012
     45 H17        -2.9700   -4.2962    3.5460 H         1 <0>         0.1111
     46 H18        -1.8358   -3.0762    2.9189 H         1 <0>         0.1089
     47 H19        -2.4185   -2.5146    5.2294 H         1 <0>         0.0722
     48 H20        -3.1397   -1.3079    4.1376 H         1 <0>         0.0729
     49 H21        -4.8579   -0.8215    5.8101 H         1 <0>         0.0418
     50 H22        -5.8437   -2.1729    6.4185 H         1 <0>         0.0893
     51 H23        -4.1368   -2.0283    6.9019 H         1 <0>         0.0438
@<TRIPOS>BOND
     1    1    2 1
     2    1   29 1
     3    1   30 1
     4    1   31 1
     5    2    3 1
     6    2    4 1
     7    2   32 1
     8    3   33 1
     9    3   34 1
    10    3   35 1
    11    4    8 1
    12    4    5 1
    13    5    6 2
    14    5    9 1
    15    6    7 1
    16    6   36 1
    17    7    8 2
    18    7   37 1
    19    9   10 2
    20    9   11 1
    21   11   12 2
    22   12   20 1
    23   12   13 1
    24   13   14 1
    25   13   25 1
    26   14   19 ar
    27   14   15 ar
    28   15   16 ar
    29   15   38 1
    30   16   17 ar
    31   16   39 1
    32   17   18 ar
    33   17   21 1
    34   18   19 ar
    35   18   40 1
    36   19   20 1
    37   21   22 am
    38   21   41 1
    39   22   23 2
    40   22   24 1
    41   24   42 1
    42   24   43 1
    43   24   44 1
    44   25   26 1
    45   25   45 1
    46   25   46 1
    47   26   27 1
    48   26   47 1
    49   26   48 1
    50   27   28 1
    51   28   49 1
    52   28   50 1
    53   28   51 1
