@<TRIPOS>MOLECULE
ZINC52562452
   59    60     0     0     0
SMALL
USER_CHARGES

@<TRIPOS>ATOM
      1 C1          0.6475    1.3358   -0.4080 C.3       1 <0>        -0.1532
      2 C2          0.5609   -0.1900   -0.3345 C.3       1 <0>        -0.0890
      3 H1         -0.4526   -0.5086   -0.5784 H         1 <0>         0.0844
      4 C3          1.5432   -0.8052   -1.3333 C.3       1 <0>        -0.1259
      5 C4          1.4566   -2.3310   -1.2599 C.3       1 <0>        -0.1196
      6 C5          1.8103   -2.7944    0.1547 C.3       1 <0>        -0.1334
      7 C6          0.8280   -2.1792    1.1535 C.3       1 <0>         0.0460
      8 C7          0.9146   -0.6534    1.0801 C.3       1 <0>        -0.1282
      9 C8         -0.5946   -2.6263    0.8111 C.3       1 <0>         0.1197
     10 N1         -0.7004   -4.0792    0.9663 N.am      1 <0>        -0.7627
     11 C9         -1.8746   -4.6982    0.7322 C.2       1 <0>         0.7101
     12 O1         -2.8459   -4.0507    0.3922 O.2       1 <0>        -0.5665
     13 N2         -1.9720   -6.0348    0.8750 N.am      1 <0>        -0.7355
     14 C10        -3.2482   -6.7076    0.6205 C.3       1 <0>         0.1246
     15 C11        -3.0874   -8.2112    0.8530 C.3       1 <0>         0.1104
     16 N3         -4.3636   -8.8840    0.5986 N.am      1 <0>        -0.7265
     17 C12        -4.4610  -10.2207    0.7413 C.2       1 <0>         0.5650
     18 O2         -3.4898  -10.8680    1.0813 O.2       1 <0>        -0.5179
     19 C13        -5.7477  -10.8989    0.4848 C.ar      1 <0>        -0.1825
     20 C14        -6.8641  -10.1593    0.0885 C.ar      1 <0>        -0.0582
     21 C15        -8.0620  -10.7985   -0.1498 C.ar      1 <0>        -0.1377
     22 C16        -8.1620  -12.1711    0.0028 C.ar      1 <0>        -0.0567
     23 C17        -7.0630  -12.9117    0.3950 C.ar      1 <0>        -0.1626
     24 C18        -5.8526  -12.2854    0.6318 C.ar      1 <0>         0.1626
     25 F1         -4.7770  -13.0102    1.0098 F         1 <0>        -0.1135
     26 N4          1.1676   -2.6241    2.5117 N.4       1 <0>        -0.3821
     27 C19         2.5035   -2.1288    2.8695 C.3       1 <0>        -0.0572
     28 C20         0.1790   -2.0963    3.4614 C.3       1 <0>        -0.0590
     29 H2          1.6610    1.6543   -0.1641 H         1 <0>         0.0604
     30 H3          0.3955    1.6659   -1.4158 H         1 <0>         0.0690
     31 H4         -0.0523    1.7741    0.3036 H         1 <0>         0.0614
     32 H5          1.2912   -0.4751   -2.3411 H         1 <0>         0.0819
     33 H6          2.5566   -0.4867   -1.0894 H         1 <0>         0.0723
     34 H7          0.4431   -2.6496   -1.5038 H         1 <0>         0.0770
     35 H8          2.1563   -2.7693   -1.9714 H         1 <0>         0.0875
     36 H9          1.7486   -3.8814    0.2071 H         1 <0>         0.0843
     37 H10         2.8238   -2.4759    0.3986 H         1 <0>         0.0939
     38 H11         1.9281   -0.3348    1.3240 H         1 <0>         0.0966
     39 H12         0.2148   -0.2151    1.7916 H         1 <0>         0.0920
     40 H13        -1.3006   -2.1369    1.4820 H         1 <0>         0.0962
     41 H14        -0.8232   -2.3534   -0.2191 H         1 <0>         0.1173
     42 H15         0.0745   -4.5958    1.2375 H         1 <0>         0.3893
     43 H16        -1.1970   -6.5514    1.1462 H         1 <0>         0.4010
     44 H17        -4.0073   -6.3145    1.2968 H         1 <0>         0.0803
     45 H18        -3.5533   -6.5300   -0.4107 H         1 <0>         0.0808
     46 H19        -2.3283   -8.6043    0.1767 H         1 <0>         0.0780
     47 H20        -2.7823   -8.3888    1.8843 H         1 <0>         0.0772
     48 H21        -5.1386   -8.3675    0.3273 H         1 <0>         0.4041
     49 H22        -6.7892   -9.0885   -0.0307 H         1 <0>         0.1347
     50 H23        -8.9255  -10.2268   -0.4563 H         1 <0>         0.1396
     51 H24        -9.1036  -12.6654   -0.1852 H         1 <0>         0.1423
     52 H25        -7.1484  -13.9819    0.5128 H         1 <0>         0.1466
     53 H26         2.4850   -1.0402    2.9232 H         1 <0>         0.1273
     54 H27         2.7943   -2.5353    3.8381 H         1 <0>         0.1277
     55 H28         3.2223   -2.4431    2.1129 H         1 <0>         0.1264
     56 H29        -0.8122   -2.4638    3.1959 H         1 <0>         0.1254
     57 H30         0.4310   -2.4264    4.4692 H         1 <0>         0.1284
     58 H31         0.1847   -1.0069    3.4239 H         1 <0>         0.1278
     59 H32         1.1624   -3.6325    2.5464 H         1 <0>         0.4181
@<TRIPOS>BOND
     1    1    2 1
     2    1   29 1
     3    1   30 1
     4    1   31 1
     5    2    3 1
     6    2    8 1
     7    2    4 1
     8    4    5 1
     9    4   32 1
    10    4   33 1
    11    5    6 1
    12    5   34 1
    13    5   35 1
    14    6    7 1
    15    6   36 1
    16    6   37 1
    17    7    8 1
    18    7    9 1
    19    7   26 1
    20    8   38 1
    21    8   39 1
    22    9   10 1
    23    9   40 1
    24    9   41 1
    25   10   11 am
    26   10   42 1
    27   11   12 2
    28   11   13 am
    29   13   14 1
    30   13   43 1
    31   14   15 1
    32   14   44 1
    33   14   45 1
    34   15   16 1
    35   15   46 1
    36   15   47 1
    37   16   17 am
    38   16   48 1
    39   17   18 2
    40   17   19 1
    41   19   24 ar
    42   19   20 ar
    43   20   21 ar
    44   20   49 1
    45   21   22 ar
    46   21   50 1
    47   22   23 ar
    48   22   51 1
    49   23   24 ar
    50   23   52 1
    51   24   25 1
    52   26   27 1
    53   26   28 1
    54   26   59 1
    55   27   53 1
    56   27   54 1
    57   27   55 1
    58   28   56 1
    59   28   57 1
    60   28   58 1
