@<TRIPOS>MOLECULE
ZINC24747460
   59    61     0     0     0
SMALL
USER_CHARGES
(2S)-4-[2-[[(1R)-1-(4-ethylphenyl)-2-methyl-propyl]amino]acetyl]-2,3-dihydro-1,4-benzoxazine-2-carboxamide
@<TRIPOS>ATOM
      1 C1          6.0542    2.6566   -1.6814 C.3       1 <0>        -0.1507
      2 C2          5.4892    2.9855   -0.2981 C.3       1 <0>        -0.0999
      3 C3          4.0641    2.5034   -0.2099 C.ar      1 <0>        -0.0445
      4 C4          3.7937    1.2241    0.2387 C.ar      1 <0>        -0.1085
      5 C5          2.4865    0.7820    0.3196 C.ar      1 <0>        -0.0804
      6 C6          1.4497    1.6191   -0.0480 C.ar      1 <0>        -0.1473
      7 C7          1.7204    2.8966   -0.5016 C.ar      1 <0>        -0.1131
      8 C8          3.0273    3.3407   -0.5771 C.ar      1 <0>        -0.1070
      9 C9          0.0246    1.1369    0.0398 C.3       1 <0>         0.0937
     10 H1          0.0029    0.0372    0.0244 H         1 <0>         0.1429
     11 C10        -0.6195    1.6794    1.3171 C.3       1 <0>        -0.1061
     12 C11         0.0891    1.0870    2.5369 C.3       1 <0>        -0.1528
     13 C12        -0.4931    3.2039    1.3443 C.3       1 <0>        -0.1761
     14 N1         -0.7268    1.6146   -1.1286 N.4       1 <0>        -0.5303
     15 C13        -1.9353    0.8075   -1.3433 C.3       1 <0>        -0.0299
     16 C14        -2.7417    1.4003   -2.4700 C.2       1 <0>         0.5033
     17 O1         -2.3057    2.3423   -3.0976 O.2       1 <0>        -0.5035
     18 N2         -3.9472    0.8838   -2.7803 N.am      1 <0>        -0.5276
     19 C15        -4.5405   -0.2011   -1.9798 C.3       1 <0>         0.0675
     20 C16        -5.1690   -1.2067   -2.9551 C.3       1 <0>         0.0611
     21 H2         -4.4302   -1.6276   -3.6530 H         1 <0>         0.1111
     22 O2         -6.1432   -0.5286   -3.7518 O.3       1 <0>        -0.2810
     23 C17        -5.7746    0.6361   -4.3472 C.ar      1 <0>         0.1081
     24 C18        -4.6847    1.3655   -3.8755 C.ar      1 <0>         0.0490
     25 C19        -4.3211    2.5502   -4.4921 C.ar      1 <0>        -0.1086
     26 C20        -5.0455    3.0146   -5.5749 C.ar      1 <0>        -0.1272
     27 C21        -6.1285    2.2947   -6.0436 C.ar      1 <0>        -0.0829
     28 C22        -6.4944    1.1091   -5.4339 C.ar      1 <0>        -0.1205
     29 C23        -5.8334   -2.3149   -2.1795 C.2       1 <0>         0.5246
     30 O3         -7.0365   -2.4574   -2.2356 O.2       1 <0>        -0.5012
     31 N3         -5.0907   -3.1475   -1.4235 N.am      1 <0>        -0.8706
     32 H3          7.0944    3.0085   -1.7457 H         1 <0>         0.0678
     33 H4          5.4497    3.1563   -2.4527 H         1 <0>         0.0573
     34 H5          6.0247    1.5685   -1.8403 H         1 <0>         0.0578
     35 H6          6.0937    2.4858    0.4732 H         1 <0>         0.0812
     36 H7          5.5187    4.0736   -0.1392 H         1 <0>         0.0807
     37 H8          4.6038    0.5700    0.5256 H         1 <0>         0.1350
     38 H9          2.2753   -0.2176    0.6697 H         1 <0>         0.1323
     39 H10         0.9106    3.5490   -0.7930 H         1 <0>         0.1216
     40 H11         3.2386    4.3403   -0.9272 H         1 <0>         0.1341
     41 H12        -1.6830    1.3993    1.3389 H         1 <0>         0.0927
     42 H13        -0.3740    1.4771    3.4553 H         1 <0>         0.0780
     43 H14         1.1526    1.3671    2.5150 H         1 <0>         0.0724
     44 H15        -0.0019   -0.0091    2.5173 H         1 <0>         0.0671
     45 H16        -0.9562    3.5939    2.2627 H         1 <0>         0.0863
     46 H17        -1.0026    3.6298    0.4673 H         1 <0>         0.0491
     47 H18         0.5704    3.4841    1.3224 H         1 <0>         0.0851
     48 H19        -1.0254    2.6613   -0.9696 H         1 <0>         0.4504
     49 H20        -1.6474   -0.2224   -1.6008 H         1 <0>         0.1650
     50 H21        -2.5395    0.8003   -0.4242 H         1 <0>         0.1602
     51 H22        -3.7556   -0.6865   -1.3812 H         1 <0>         0.1115
     52 H23        -5.3078    0.2147   -1.3102 H         1 <0>         0.1141
     53 H24        -3.4750    3.1127   -4.1260 H         1 <0>         0.1697
     54 H25        -4.7649    3.9406   -6.0545 H         1 <0>         0.1360
     55 H26        -6.6911    2.6599   -6.8901 H         1 <0>         0.1401
     56 H27        -7.3413    0.5507   -5.8045 H         1 <0>         0.1448
     57 H28        -5.5757   -3.9564   -0.8574 H         1 <0>         0.4420
     58 H29        -3.9995   -3.0182   -1.3726 H         1 <0>         0.4154
     59 H30        -0.0931    1.5462   -2.0251 H         1 <0>         0.4607
@<TRIPOS>BOND
     1    1    2 1
     2    1   32 1
     3    1   33 1
     4    1   34 1
     5    2    3 1
     6    2   35 1
     7    2   36 1
     8    3    8 ar
     9    3    4 ar
    10    4    5 ar
    11    4   37 1
    12    5    6 ar
    13    5   38 1
    14    6    7 ar
    15    6    9 1
    16    7    8 ar
    17    7   39 1
    18    8   40 1
    19    9   10 1
    20    9   11 1
    21    9   14 1
    22   11   12 1
    23   11   13 1
    24   11   41 1
    25   12   42 1
    26   12   43 1
    27   12   44 1
    28   13   45 1
    29   13   46 1
    30   13   47 1
    31   14   15 1
    32   14   48 1
    33   14   59 1
    34   15   16 1
    35   15   49 1
    36   15   50 1
    37   16   17 2
    38   16   18 am
    39   18   24 1
    40   18   19 1
    41   19   20 1
    42   19   51 1
    43   19   52 1
    44   20   21 1
    45   20   22 1
    46   20   29 1
    47   22   23 1
    48   23   28 ar
    49   23   24 ar
    50   24   25 ar
    51   25   26 ar
    52   25   53 1
    53   26   27 ar
    54   26   54 1
    55   27   28 ar
    56   27   55 1
    57   28   56 1
    58   29   30 2
    59   29   31 am
    60   31   57 1
    61   31   58 1
