@<TRIPOS>MOLECULE
ZINC09739824
   40    43     0     0     0
SMALL
USER_CHARGES
2-(1-cyclopropyltetrazol-5-yl)sulfanyl-N-(2,9-dimethyl-5-oxo-8-oxa-3,4-diazabicyclo[4.3.0]nona-2,6,9-trien-7-yl)-acetamide
@<TRIPOS>ATOM
      1 C1          7.0156   -0.1104   -0.0648 C.3       1 <0>        -0.0999
      2 C2          5.9903    0.9939   -0.0491 C.2       1 <0>         0.1886
      3 C3          4.5605    0.6709   -0.0373 C.2       1 <0>        -0.1670
      4 C4          3.8100   -0.4507   -0.0359 C.2       1 <0>         0.0573
      5 O1          2.5080   -0.1104   -0.0166 O.3       1 <0>        -0.1433
      6 C5          2.3517    1.2225   -0.0138 C.2       1 <0>         0.3419
      7 C6          3.5981    1.8002   -0.0226 C.2       1 <0>        -0.2815
      8 C7          4.1447    3.1533   -0.0217 C.2       1 <0>         0.5746
      9 O2          3.4056    4.1216   -0.0099 O.2       1 <0>        -0.5363
     10 N1          5.4848    3.3107   -0.0328 N.am      1 <0>        -0.5366
     11 H1          5.8473    4.2105   -0.0320 H         1 <0>         0.4372
     12 N2          6.3690    2.2349   -0.0465 N.2       1 <0>        -0.2473
     13 N3          1.1435    1.8983    0.0013 N.am      1 <0>        -0.6165
     14 C8         -0.0144    1.2086    0.0087 C.2       1 <0>         0.5317
     15 O3          0.0021   -0.0041    0.0020 O.2       1 <0>        -0.4751
     16 C9         -1.3296    1.9443    0.0189 C.3       1 <0>        -0.1582
     17 S1         -2.6892    0.7495    0.0189 S.3       1 <0>         0.1289
     18 C10        -4.0644    1.8510    0.0314 C.2       1 <0>         0.1972
     19 N4         -4.0130    3.1653    0.0440 N.2       1 <0>        -0.3351
     20 N5         -5.1973    3.6618    0.0466 N.2       1 <0>        -0.0277
     21 N6         -6.0778    2.7203    0.0456 N.2       1 <0>        -0.0746
     22 N7         -5.3731    1.5039    0.0357 N.pl3     1 <0>        -0.3298
     23 C11        -5.9345    0.1507    0.0317 C.3       1 <0>         0.0501
     24 C12        -7.4451    0.0131   -0.1684 C.3       1 <0>        -0.1521
     25 C13        -6.8283   -0.2468    1.2082 C.3       1 <0>        -0.1617
     26 C14         4.3447   -1.8596   -0.0487 C.3       1 <0>        -0.0833
     27 H2          7.2531   -0.3711   -1.0962 H         1 <0>         0.0921
     28 H3          7.9199    0.2262    0.4423 H         1 <0>         0.0898
     29 H4          6.6156   -0.9850    0.4481 H         1 <0>         0.0886
     30 H5          1.1304    2.8682    0.0067 H         1 <0>         0.4478
     31 H6         -1.3916    2.5652    0.9126 H         1 <0>         0.1443
     32 H7         -1.4000    2.5749   -0.8673 H         1 <0>         0.1441
     33 H8         -5.2973   -0.6213   -0.3996 H         1 <0>         0.1589
     34 H9         -8.0213    0.9294   -0.2971 H         1 <0>         0.1163
     35 H10        -7.8018   -0.8496   -0.7310 H         1 <0>         0.1208
     36 H11        -6.7793   -1.2805    1.5507 H         1 <0>         0.1217
     37 H12        -6.9982    0.4983    1.9854 H         1 <0>         0.1075
     38 H13         4.4837   -2.2048    0.9758 H         1 <0>         0.0950
     39 H14         3.6365   -2.5123   -0.5591 H         1 <0>         0.0887
     40 H15         5.3006   -1.8807   -0.5722 H         1 <0>         0.1031
@<TRIPOS>BOND
     1    1    2 1
     2    1   27 1
     3    1   28 1
     4    1   29 1
     5    2   12 2
     6    2    3 1
     7    3    7 1
     8    3    4 2
     9    4    5 1
    10    4   26 1
    11    5    6 1
    12    6    7 2
    13    6   13 1
    14    7    8 1
    15    8    9 2
    16    8   10 am
    17   10   11 1
    18   10   12 1
    19   13   14 am
    20   13   30 1
    21   14   15 2
    22   14   16 1
    23   16   17 1
    24   16   31 1
    25   16   32 1
    26   17   18 1
    27   18   22 1
    28   18   19 2
    29   19   20 1
    30   20   21 2
    31   21   22 1
    32   22   23 1
    33   23   25 1
    34   23   24 1
    35   23   33 1
    36   24   25 1
    37   24   34 1
    38   24   35 1
    39   25   36 1
    40   25   37 1
    41   26   38 1
    42   26   39 1
    43   26   40 1
