@<TRIPOS>MOLECULE
ZINC04239570
   43    45     0     0     0
SMALL
USER_CHARGES
5-(4-fluorophenyl)-2-methyl-8-sec-butyl-2,4,8-triazabicyclo[4.3.0]non-10-ene-3,7-dione
@<TRIPOS>ATOM
      1 C1         -0.0187    1.5258    0.0104 C.3       1 <0>        -0.1494
      2 C2          0.0021   -0.0041    0.0020 C.3       1 <0>        -0.1428
      3 C3          0.7182   -0.4975   -1.2568 C.3       1 <0>         0.1733
      4 H1          1.7103   -0.0491   -1.3098 H         1 <0>         0.0920
      5 C4          0.8493   -2.0210   -1.2049 C.3       1 <0>        -0.1698
      6 N1         -0.0549   -0.1139   -2.4405 N.am      1 <0>        -0.6144
      7 C5          0.4046    0.7455   -3.5417 C.3       1 <0>         0.1413
      8 C6         -0.7672    0.8160   -4.4949 C.2       1 <0>         0.1699
      9 C7         -1.7496    0.0744   -3.9441 C.2       1 <0>        -0.2776
     10 C8         -1.3197   -0.4774   -2.7199 C.2       1 <0>         0.5807
     11 O1         -2.0041   -1.1897   -2.0082 O.2       1 <0>        -0.5202
     12 C9         -3.0617   -0.0267   -4.6954 C.3       1 <0>         0.2560
     13 H2         -3.8525    0.3410   -4.0416 H         1 <0>         0.0938
     14 N2         -3.1557    0.6988   -5.9735 N.am      1 <0>        -0.7114
     15 C10        -2.0843    1.3999   -6.3943 C.2       1 <0>         0.7104
     16 O2         -2.1520    2.0014   -7.4484 O.2       1 <0>        -0.5560
     17 N3         -0.9472    1.4548   -5.6886 N.am      1 <0>        -0.5285
     18 C11         0.1643    2.2429   -6.2267 C.3       1 <0>         0.0720
     19 C12        -3.3304   -1.4844   -4.9672 C.ar      1 <0>        -0.1167
     20 C13        -2.7010   -2.1176   -6.0227 C.ar      1 <0>        -0.0701
     21 C14        -2.9429   -3.4556   -6.2700 C.ar      1 <0>        -0.1565
     22 C15        -3.8241   -4.1592   -5.4666 C.ar      1 <0>         0.1045
     23 C16        -4.4579   -3.5227   -4.4130 C.ar      1 <0>        -0.1519
     24 C17        -4.2104   -2.1859   -4.1644 C.ar      1 <0>        -0.0548
     25 F1         -4.0650   -5.4661   -5.7103 F         1 <0>        -0.1388
     26 H3          1.0039    1.9031    0.0027 H         1 <0>         0.0529
     27 H4         -0.5459    1.8868   -0.8726 H         1 <0>         0.0506
     28 H5         -0.5289    1.8773    0.9072 H         1 <0>         0.0566
     29 H6          0.5293   -0.3651    0.8851 H         1 <0>         0.0772
     30 H7         -1.0205   -0.3814    0.0098 H         1 <0>         0.0818
     31 H8         -0.1428   -2.4694   -1.1520 H         1 <0>         0.0740
     32 H9          1.3594   -2.3725   -2.1017 H         1 <0>         0.0574
     33 H10         1.4245   -2.3064   -0.3242 H         1 <0>         0.0711
     34 H11         0.6530    1.7392   -3.1689 H         1 <0>         0.1108
     35 H12         1.2670    0.2988   -4.0367 H         1 <0>         0.1104
     36 H13        -3.9696    0.6724   -6.5004 H         1 <0>         0.4357
     37 H14         0.7879    1.6086   -6.8567 H         1 <0>         0.0741
     38 H15        -0.2292    3.0689   -6.8192 H         1 <0>         0.0973
     39 H16         0.7614    2.6376   -5.4046 H         1 <0>         0.0836
     40 H17        -2.0168   -1.5675   -6.6517 H         1 <0>         0.1220
     41 H18        -2.4479   -3.9511   -7.0921 H         1 <0>         0.1348
     42 H19        -5.1452   -4.0706   -3.7855 H         1 <0>         0.1378
     43 H20        -4.7049   -1.6891   -3.3428 H         1 <0>         0.1366
@<TRIPOS>BOND
     1    1    2 1
     2    1   26 1
     3    1   27 1
     4    1   28 1
     5    2    3 1
     6    2   29 1
     7    2   30 1
     8    3    4 1
     9    3    5 1
    10    3    6 1
    11    5   31 1
    12    5   32 1
    13    5   33 1
    14    6   10 am
    15    6    7 1
    16    7    8 1
    17    7   34 1
    18    7   35 1
    19    8   17 1
    20    8    9 2
    21    9   10 1
    22    9   12 1
    23   10   11 2
    24   12   13 1
    25   12   14 1
    26   12   19 1
    27   14   15 am
    28   14   36 1
    29   15   16 2
    30   15   17 am
    31   17   18 1
    32   18   37 1
    33   18   38 1
    34   18   39 1
    35   19   24 ar
    36   19   20 ar
    37   20   21 ar
    38   20   40 1
    39   21   22 ar
    40   21   41 1
    41   22   23 ar
    42   22   25 1
    43   23   24 ar
    44   23   42 1
    45   24   43 1
