@<TRIPOS>MOLECULE
ZINC04849770
   56    59     0     0     0
SMALL
USER_CHARGES
1-[(2-chlorophenyl)-(1-cyclohexyltetrazol-5-yl)-methyl]piperidine-4-carboxamide
@<TRIPOS>ATOM
      1 C1          2.3773    1.4115   -0.0126 C.ar      1 <0>        -0.0896
      2 C2          1.1707    2.0864    0.0021 C.ar      1 <0>        -0.0702
      3 C3         -0.0167    1.3795    0.0096 C.ar      1 <0>        -0.0906
      4 C4          0.0021   -0.0041    0.0020 C.ar      1 <0>        -0.0145
      5 C5          1.2096   -0.6788   -0.0131 C.ar      1 <0>        -0.1369
      6 C6          2.3967    0.0294   -0.0207 C.ar      1 <0>        -0.1011
      7 C7          1.2309   -2.1856   -0.0209 C.3       1 <0>         0.1858
      8 H1          0.4001   -2.5638    0.5747 H         1 <0>         0.1631
      9 C8          1.1004   -2.6825   -1.4377 C.2       1 <0>         0.1142
     10 N1          2.0311   -2.6693   -2.3605 N.2       1 <0>        -0.2771
     11 N2          1.5339   -3.1786   -3.4344 N.2       1 <0>        -0.0488
     12 N3          0.3102   -3.5164   -3.2206 N.2       1 <0>        -0.0461
     13 N4          0.0073   -3.2314   -1.9993 N.pl3     1 <0>        -0.2649
     14 C9         -1.2847   -3.4592   -1.3473 C.3       1 <0>         0.1296
     15 C10        -1.6104   -4.9540   -1.3690 C.3       1 <0>        -0.1306
     16 C11        -2.9598   -5.1919   -0.6881 C.3       1 <0>        -0.1162
     17 C12        -4.0506   -4.4214   -1.4347 C.3       1 <0>        -0.1300
     18 C13        -3.7249   -2.9266   -1.4130 C.3       1 <0>        -0.1151
     19 C14        -2.3756   -2.6887   -2.0939 C.3       1 <0>        -0.1391
     20 C15         2.5977   -4.1231    0.4672 C.3       1 <0>        -0.0033
     21 C16         3.9850   -4.5689    0.9348 C.3       1 <0>        -0.1370
     22 C17         4.2060   -4.1042    2.3769 C.3       1 <0>        -0.1243
     23 C18         4.0495   -2.5825    2.4441 C.3       1 <0>        -0.1268
     24 C19         2.6603   -2.1943    1.9328 C.3       1 <0>        -0.0107
     25 C20         5.5929   -4.4881    2.8242 C.2       1 <0>         0.5217
     26 O1          6.3799   -3.6300    3.1637 O.2       1 <0>        -0.5263
     27 N5          5.9587   -5.7851    2.8470 N.am      1 <0>        -0.8488
     28 Cl1        -1.4892   -0.8928    0.0109 Cl        1 <0>        -0.0426
     29 H2          3.3051    1.9644   -0.0185 H         1 <0>         0.1505
     30 H3          1.1562    3.1663    0.0077 H         1 <0>         0.1520
     31 H4         -0.9592    1.9069    0.0169 H         1 <0>         0.1527
     32 H5          3.3395   -0.4972   -0.0325 H         1 <0>         0.1314
     33 H6         -1.2369   -3.1127   -0.3150 H         1 <0>         0.1151
     34 H7         -1.6583   -5.3005   -2.4014 H         1 <0>         0.0923
     35 H8         -0.8333   -5.5029   -0.8372 H         1 <0>         0.0726
     36 H9         -2.9119   -4.8454    0.3442 H         1 <0>         0.0679
     37 H10        -3.1918   -6.2568   -0.7036 H         1 <0>         0.0844
     38 H11        -5.0119   -4.5909   -0.9496 H         1 <0>         0.0782
     39 H12        -4.0984   -4.7679   -2.4670 H         1 <0>         0.0740
     40 H13        -3.6770   -2.5801   -0.3806 H         1 <0>         0.0625
     41 H14        -4.5020   -2.3777   -1.9448 H         1 <0>         0.0851
     42 H15        -2.1435   -1.6238   -2.0784 H         1 <0>         0.0825
     43 H16        -2.4234   -3.0352   -3.1262 H         1 <0>         0.0923
     44 H17         1.8372   -4.5752    1.1040 H         1 <0>         0.1389
     45 H18         2.4428   -4.4401   -0.5641 H         1 <0>         0.1265
     46 H19         4.7454   -4.1283    0.2899 H         1 <0>         0.1013
     47 H20         4.0536   -5.6557    0.8881 H         1 <0>         0.1217
     48 H21         3.4697   -4.5752    3.0282 H         1 <0>         0.1201
     49 H22         4.8109   -2.1106    1.8230 H         1 <0>         0.1013
     50 H23         4.1635   -2.2502    3.4760 H         1 <0>         0.1281
     51 H24         2.5509   -1.1103    1.9660 H         1 <0>         0.1417
     52 H25         1.8997   -2.6555    2.5628 H         1 <0>         0.1403
     53 H26         5.3293   -6.4714    2.5755 H         1 <0>         0.4031
     54 H27         6.8515   -6.0322    3.1350 H         1 <0>         0.4127
     55 N6          2.5202   -2.6481    0.5329 N.4       1 <0>        -0.3895
     56 H28         3.2847   -2.2493   -0.0245 H         1 <0>         0.4362
@<TRIPOS>BOND
     1    1    6 ar
     2    1    2 ar
     3    1   29 1
     4    2    3 ar
     5    2   30 1
     6    3    4 ar
     7    3   31 1
     8    4    5 ar
     9    4   28 1
    10    5    6 ar
    11    5    7 1
    12    6   32 1
    13    7    8 1
    14    7    9 1
    15    7   55 1
    16    9   13 1
    17    9   10 2
    18   10   11 1
    19   11   12 2
    20   12   13 1
    21   13   14 1
    22   14   19 1
    23   14   15 1
    24   14   33 1
    25   15   16 1
    26   15   34 1
    27   15   35 1
    28   16   17 1
    29   16   36 1
    30   16   37 1
    31   17   18 1
    32   17   38 1
    33   17   39 1
    34   18   19 1
    35   18   40 1
    36   18   41 1
    37   19   42 1
    38   19   43 1
    39   20   21 1
    40   20   44 1
    41   20   45 1
    42   20   55 1
    43   21   22 1
    44   21   46 1
    45   21   47 1
    46   22   23 1
    47   22   25 1
    48   22   48 1
    49   23   24 1
    50   23   49 1
    51   23   50 1
    52   24   51 1
    53   24   52 1
    54   24   55 1
    55   25   26 2
    56   25   27 am
    57   27   53 1
    58   27   54 1
    59   55   56 1
