@<TRIPOS>MOLECULE
ZINC12025030
   58    61     0     0     0
SMALL
USER_CHARGES
2-methyl-N-[(1S)-1-[7-(7-quinolylmethyl)-5,6,8,9-tetrahydro-[1,2,4]triazolo[4,5-d][1,4]diazepin-3-yl]ethyl]propanamide
@<TRIPOS>ATOM
      1 C1          0.4035    4.1507    1.2698 C.3       1 <0>        -0.1483
      2 C2          1.1197    3.6573    0.0110 C.3       1 <0>        -0.1125
      3 C3          2.5551    4.1869    0.0001 C.3       1 <0>        -0.1358
      4 C4          1.1401    2.1505    0.0027 C.2       1 <0>         0.5250
      5 O1          2.1985    1.5584   -0.0106 O.2       1 <0>        -0.5331
      6 N1         -0.0178    1.4608    0.0101 N.am      1 <0>        -0.7248
      7 C5          0.0021   -0.0041    0.0020 C.3       1 <0>         0.2336
      8 H1          0.8431   -0.3527   -0.5974 H         1 <0>         0.1037
      9 C6          0.1484   -0.5200    1.4349 C.3       1 <0>        -0.1618
     10 C7         -1.2844   -0.5207   -0.5890 C.2       1 <0>         0.1929
     11 N2         -2.4901   -0.0957   -0.3155 N.2       1 <0>        -0.2663
     12 N3         -3.3512   -0.7550   -1.0104 N.2       1 <0>        -0.2487
     13 C8         -2.7342   -1.6221   -1.7583 C.2       1 <0>         0.1493
     14 N4         -1.4076   -1.5050   -1.5044 N.pl3     1 <0>        -0.4785
     15 C9         -0.3443   -2.3224   -2.0892 C.3       1 <0>         0.0816
     16 C10        -0.7886   -2.8068   -3.4726 C.3       1 <0>        -0.0243
     17 C11        -2.7131   -3.9673   -2.5385 C.3       1 <0>        -0.0118
     18 C12        -3.3403   -2.5851   -2.7462 C.3       1 <0>        -0.0495
     19 C13        -0.6125   -5.1300   -2.8197 C.3       1 <0>         0.0409
     20 C14        -1.2757   -6.4747   -2.9717 C.ar      1 <0>        -0.1431
     21 C15        -1.0720   -7.2118   -4.1367 C.ar      1 <0>        -0.1195
     22 C16        -1.6568   -8.4298   -4.3038 C.ar      1 <0>        -0.0695
     23 C17        -2.4762   -8.9511   -3.2895 C.ar      1 <0>        -0.0894
     24 C18        -3.0986  -10.2067   -3.4230 C.ar      1 <0>        -0.0583
     25 C19        -3.8814  -10.6503   -2.3956 C.ar      1 <0>        -0.1530
     26 C20        -4.0448   -9.8646   -1.2566 C.ar      1 <0>         0.1506
     27 N5         -3.4640   -8.6957   -1.1358 N.ar      1 <0>        -0.4734
     28 C21        -2.6848   -8.2035   -2.1042 C.ar      1 <0>         0.1195
     29 C22        -2.0593   -6.9519   -1.9667 C.ar      1 <0>        -0.0500
     30 H2          0.3888    5.2406    1.2758 H         1 <0>         0.0740
     31 H3         -0.6191    3.7734    1.2775 H         1 <0>         0.0610
     32 H4          0.9307    3.7897    2.1529 H         1 <0>         0.0639
     33 H5          0.5925    4.0184   -0.8721 H         1 <0>         0.0996
     34 H6          3.0652    3.8354   -0.8966 H         1 <0>         0.0617
     35 H7          2.5403    5.2768    0.0061 H         1 <0>         0.0670
     36 H8          3.0822    3.8258    0.8832 H         1 <0>         0.0645
     37 H9         -0.8643    1.9343    0.0167 H         1 <0>         0.4129
     38 H10         1.0789   -0.1464    1.8624 H         1 <0>         0.0835
     39 H11        -0.6926   -0.1713    2.0343 H         1 <0>         0.0754
     40 H12         0.1632   -1.6099    1.4289 H         1 <0>         0.0654
     41 H13        -0.1460   -3.1819   -1.4487 H         1 <0>         0.1134
     42 H14         0.5609   -1.7231   -2.1865 H         1 <0>         0.1430
     43 H15         0.0868   -2.9394   -4.1083 H         1 <0>         0.1601
     44 H16        -1.4516   -2.0658   -3.9190 H         1 <0>         0.1465
     45 H17        -2.4612   -4.0968   -1.4859 H         1 <0>         0.1343
     46 H18        -3.4243   -4.7371   -2.8379 H         1 <0>         0.1476
     47 H19        -4.4167   -2.6446   -2.5850 H         1 <0>         0.1486
     48 H20        -3.1396   -2.2418   -3.7611 H         1 <0>         0.1136
     49 H21         0.3269   -5.1237   -3.3726 H         1 <0>         0.1465
     50 H22        -0.4145   -4.9396   -1.7649 H         1 <0>         0.1382
     51 H23        -0.4417   -6.8117   -4.9171 H         1 <0>         0.1365
     52 H24        -1.4912   -8.9919   -5.2109 H         1 <0>         0.1431
     53 H25        -2.9611  -10.8024   -4.3134 H         1 <0>         0.1491
     54 H26        -4.3731  -11.6094   -2.4658 H         1 <0>         0.1505
     55 H27        -4.6668  -10.2282   -0.4520 H         1 <0>         0.1712
     56 H28        -2.2032   -6.3697   -1.0685 H         1 <0>         0.1409
     57 N6         -1.5051   -4.1004   -3.3815 N.4       1 <0>        -0.3964
     58 H29        -1.7908   -4.3869   -4.3252 H         1 <0>         0.4392
@<TRIPOS>BOND
     1    1    2 1
     2    1   30 1
     3    1   31 1
     4    1   32 1
     5    2    3 1
     6    2    4 1
     7    2   33 1
     8    3   34 1
     9    3   35 1
    10    3   36 1
    11    4    5 2
    12    4    6 am
    13    6    7 1
    14    6   37 1
    15    7    8 1
    16    7    9 1
    17    7   10 1
    18    9   38 1
    19    9   39 1
    20    9   40 1
    21   10   14 1
    22   10   11 2
    23   11   12 1
    24   12   13 2
    25   13   18 1
    26   13   14 1
    27   14   15 1
    28   15   16 1
    29   15   41 1
    30   15   42 1
    31   16   43 1
    32   16   44 1
    33   16   57 1
    34   17   18 1
    35   17   45 1
    36   17   46 1
    37   17   57 1
    38   18   47 1
    39   18   48 1
    40   19   20 1
    41   19   49 1
    42   19   50 1
    43   19   57 1
    44   20   29 ar
    45   20   21 ar
    46   21   22 ar
    47   21   51 1
    48   22   23 ar
    49   22   52 1
    50   23   28 ar
    51   23   24 ar
    52   24   25 ar
    53   24   53 1
    54   25   26 ar
    55   25   54 1
    56   26   27 ar
    57   26   55 1
    58   27   28 ar
    59   28   29 ar
    60   29   56 1
    61   57   58 1
