@<TRIPOS>MOLECULE
ZINC51362976
   31    33     0     0     0
SMALL
USER_CHARGES

@<TRIPOS>ATOM
      1 C1          0.2386    1.2748    0.1481 C.3       1 <0>         0.0955
      2 N1          0.1901   -0.1881    0.0872 N.am      1 <0>        -0.5491
      3 C2         -0.9610   -0.9753    0.0759 C.ar      1 <0>         0.0792
      4 C3         -2.3152   -0.6818    0.1146 C.ar      1 <0>        -0.0956
      5 C4         -3.2412   -1.7064    0.0893 C.ar      1 <0>        -0.0766
      6 C5         -2.8203   -3.0234    0.0260 C.ar      1 <0>        -0.0790
      7 C6         -1.4727   -3.3235   -0.0129 C.ar      1 <0>        -0.0610
      8 C7         -0.5360   -2.3020    0.0116 C.ar      1 <0>         0.0409
      9 O1          0.8193   -2.2897   -0.0138 O.3       1 <0>        -0.2330
     10 C8          1.2496   -1.0189    0.0259 C.2       1 <0>         0.6356
     11 O2          2.4147   -0.6712    0.0120 O.2       1 <0>        -0.4808
     12 C9         -3.8373   -4.1352   -0.0002 C.3       1 <0>         0.0383
     13 H1         -4.8325   -3.7212    0.1618 H         1 <0>         0.1297
     14 C10        -3.7922   -4.8258   -1.3389 C.ar      1 <0>        -0.0869
     15 C11        -2.6770   -5.5578   -1.7016 C.ar      1 <0>        -0.0895
     16 C12        -2.6351   -6.1914   -2.9292 C.ar      1 <0>        -0.1052
     17 C13        -3.7096   -6.0928   -3.7952 C.ar      1 <0>        -0.0265
     18 C14        -4.8254   -5.3601   -3.4317 C.ar      1 <0>        -0.1074
     19 C15        -4.8684   -4.7317   -2.2014 C.ar      1 <0>        -0.0867
     20 Cl1        -3.6575   -6.8879   -5.3376 Cl        1 <0>        -0.0634
     21 Br1        -3.4277   -5.4316    1.4200 Br        1 <0>        -0.1224
     22 H2          1.2775    1.6047    0.1371 H         1 <0>         0.0996
     23 H3         -0.2841    1.6919   -0.7126 H         1 <0>         0.0808
     24 H4         -0.2413    1.6164    1.0653 H         1 <0>         0.0812
     25 H5         -2.6453    0.3453    0.1647 H         1 <0>         0.1420
     26 H6         -4.2966   -1.4792    0.1194 H         1 <0>         0.1452
     27 H7         -1.1491   -4.3527   -0.0622 H         1 <0>         0.1450
     28 H8         -1.8382   -5.6343   -1.0256 H         1 <0>         0.1356
     29 H9         -1.7637   -6.7629   -3.2126 H         1 <0>         0.1384
     30 H10        -5.6643   -5.2826   -4.1074 H         1 <0>         0.1387
     31 H11        -5.7414   -4.1636   -1.9156 H         1 <0>         0.1371
@<TRIPOS>BOND
     1    1    2 1
     2    1   22 1
     3    1   23 1
     4    1   24 1
     5    2   10 am
     6    2    3 1
     7    3    8 ar
     8    3    4 ar
     9    4    5 ar
    10    4   25 1
    11    5    6 ar
    12    5   26 1
    13    6    7 ar
    14    6   12 1
    15    7    8 ar
    16    7   27 1
    17    8    9 1
    18    9   10 1
    19   10   11 2
    20   12   13 1
    21   12   14 1
    22   12   21 1
    23   14   19 ar
    24   14   15 ar
    25   15   16 ar
    26   15   28 1
    27   16   17 ar
    28   16   29 1
    29   17   18 ar
    30   17   20 1
    31   18   19 ar
    32   18   30 1
    33   19   31 1
