@<TRIPOS>MOLECULE
ZINC35965000
   55    58     0     0     0
SMALL
USER_CHARGES

@<TRIPOS>ATOM
      1 C1         -0.0187    1.5258    0.0104 C.3       1 <0>        -0.1650
      2 C2          0.0021   -0.0041    0.0020 C.3       1 <0>         0.1598
      3 H1          0.5293   -0.3651    0.8851 H         1 <0>         0.1187
      4 C3          0.7074   -0.4901   -1.2379 C.2       1 <0>         0.5019
      5 O1          0.1200   -1.1910   -2.0344 O.2       1 <0>        -0.5142
      6 N1          1.9912   -0.1458   -1.4616 N.am      1 <0>        -0.7235
      7 C4          2.6769   -0.6183   -2.6669 C.3       1 <0>         0.1245
      8 C5          4.1123   -0.0887   -2.6777 C.3       1 <0>         0.0677
      9 H2          4.6483   -0.4322   -1.7930 H         1 <0>         0.0791
     10 C6          4.8454   -0.5485   -3.9630 C.3       1 <0>        -0.1491
     11 C7          5.9326    0.5530   -4.0923 C.3       1 <0>        -0.1559
     12 C8          5.2006    1.8007   -3.5531 C.3       1 <0>         0.0501
     13 O2          4.1137    1.3466   -2.7357 O.3       1 <0>        -0.3775
     14 N2         -1.3723   -0.5112    0.0124 N.am      1 <0>        -0.6115
     15 C9         -1.9778   -1.3691    1.0418 C.3       1 <0>         0.1477
     16 C10        -3.3978   -1.5952    0.5735 C.2       1 <0>         0.1646
     17 C11        -3.5261   -0.9223   -0.5879 C.2       1 <0>        -0.2657
     18 C12        -2.3175   -0.2739   -0.9150 C.2       1 <0>         0.5894
     19 O3         -2.1502    0.4092   -1.9088 O.2       1 <0>        -0.5052
     20 C13        -4.8683   -0.9764   -1.2891 C.3       1 <0>         0.2528
     21 H3         -4.7098   -1.3845   -2.2874 H         1 <0>         0.0919
     22 N3         -5.9286   -1.7651   -0.6392 N.am      1 <0>        -0.7101
     23 C14        -5.6470   -2.3837    0.5246 C.2       1 <0>         0.7111
     24 O4         -6.5156   -3.0374    1.0685 O.2       1 <0>        -0.5591
     25 N4         -4.4408   -2.3018    1.1010 N.am      1 <0>        -0.5287
     26 C15        -4.2284   -3.0090    2.3663 C.3       1 <0>         0.0729
     27 C16        -5.3693    0.4365   -1.4433 C.ar      1 <0>        -0.1046
     28 C17        -5.9651    1.0791   -0.3742 C.ar      1 <0>        -0.0993
     29 C18        -6.4247    2.3751   -0.5157 C.ar      1 <0>        -0.1239
     30 C19        -6.2882    3.0286   -1.7261 C.ar      1 <0>        -0.1140
     31 C20        -5.6916    2.3863   -2.7949 C.ar      1 <0>        -0.1191
     32 C21        -5.2281    1.0918   -2.6522 C.ar      1 <0>        -0.0839
     33 H4          1.0039    1.9031    0.0027 H         1 <0>         0.0773
     34 H5         -0.5459    1.8868   -0.8726 H         1 <0>         0.0802
     35 H6         -0.5289    1.8773    0.9072 H         1 <0>         0.0727
     36 H7          2.4610    0.4148   -0.8245 H         1 <0>         0.4037
     37 H8          2.6917   -1.7081   -2.6729 H         1 <0>         0.0806
     38 H9          2.1497   -0.2572   -3.5499 H         1 <0>         0.0755
     39 H10         5.2964   -1.5315   -3.8277 H         1 <0>         0.0880
     40 H11         4.1745   -0.5410   -4.8220 H         1 <0>         0.0842
     41 H12         6.8002    0.3159   -3.4765 H         1 <0>         0.0786
     42 H13         6.2214    0.6927   -5.1340 H         1 <0>         0.0853
     43 H14         5.8855    2.4015   -2.9547 H         1 <0>         0.0705
     44 H15         4.8173    2.3926   -4.3843 H         1 <0>         0.0714
     45 H16        -1.4444   -2.3174    1.1067 H         1 <0>         0.1094
     46 H17        -1.9730   -0.8636    2.0075 H         1 <0>         0.1116
     47 H18        -6.8093   -1.8374   -1.0392 H         1 <0>         0.4349
     48 H19        -4.4793   -2.3500    3.1975 H         1 <0>         0.0735
     49 H20        -4.8644   -3.8937    2.3992 H         1 <0>         0.0967
     50 H21        -3.1836   -3.3097    2.4436 H         1 <0>         0.0828
     51 H22        -6.0718    0.5685    0.5714 H         1 <0>         0.1111
     52 H23        -6.8908    2.8769    0.3194 H         1 <0>         0.1204
     53 H24        -6.6479    4.0409   -1.8368 H         1 <0>         0.1214
     54 H25        -5.5852    2.8968   -3.7407 H         1 <0>         0.1233
     55 H26        -4.7586    0.5913   -3.4862 H         1 <0>         0.1249
@<TRIPOS>BOND
     1    1    2 1
     2    1   33 1
     3    1   34 1
     4    1   35 1
     5    2    3 1
     6    2    4 1
     7    2   14 1
     8    4    5 2
     9    4    6 am
    10    6    7 1
    11    6   36 1
    12    7    8 1
    13    7   37 1
    14    7   38 1
    15    8    9 1
    16    8   13 1
    17    8   10 1
    18   10   11 1
    19   10   39 1
    20   10   40 1
    21   11   12 1
    22   11   41 1
    23   11   42 1
    24   12   13 1
    25   12   43 1
    26   12   44 1
    27   14   18 am
    28   14   15 1
    29   15   16 1
    30   15   45 1
    31   15   46 1
    32   16   25 1
    33   16   17 2
    34   17   18 1
    35   17   20 1
    36   18   19 2
    37   20   21 1
    38   20   22 1
    39   20   27 1
    40   22   23 am
    41   22   47 1
    42   23   24 2
    43   23   25 am
    44   25   26 1
    45   26   48 1
    46   26   49 1
    47   26   50 1
    48   27   32 ar
    49   27   28 ar
    50   28   29 ar
    51   28   51 1
    52   29   30 ar
    53   29   52 1
    54   30   31 ar
    55   30   53 1
    56   31   32 ar
    57   31   54 1
    58   32   55 1
