@<TRIPOS>MOLECULE
ZINC16267019
   57    59     0     0     0
SMALL
USER_CHARGES
4-hydroxy-1-(2-hydroxyethyl)-3-[1-[4-hydroxy-1-(2-hydroxyethyl)-6-methyl-2-oxo-3-pyridyl]cyclopentyl]-6-methyl-pyridin-2-one
@<TRIPOS>ATOM
      1 C1         -5.8643   -1.2178    4.3064 C.3       1 <0>        -0.1299
      2 C2         -4.9944   -1.0023    3.0949 C.2       1 <0>         0.1782
      3 C3         -4.8663   -1.9895    2.1827 C.2       1 <0>        -0.2854
      4 C4         -4.0591   -1.7914    1.0447 C.2       1 <0>         0.2146
      5 C5         -3.4026   -0.5844    0.8911 C.2       1 <0>        -0.2070
      6 C6         -3.5660    0.4086    1.8640 C.2       1 <0>         0.5560
      7 O1         -2.9967    1.4820    1.7407 O.2       1 <0>        -0.5244
      8 N1         -4.3497    0.1833    2.9348 N.am      1 <0>        -0.4969
      9 C7         -4.5107    1.2331    3.9437 C.3       1 <0>         0.0871
     10 C8         -3.4620    1.0496    5.0426 C.3       1 <0>         0.0630
     11 O2         -2.1576    1.2491    4.4943 O.3       1 <0>        -0.5472
     12 C9         -2.5275   -0.3388   -0.3110 C.3       1 <0>         0.0961
     13 C10        -3.1136   -1.0494   -1.5436 C.3       1 <0>        -0.1008
     14 C11        -3.4170    0.0513   -2.5826 C.3       1 <0>        -0.1117
     15 C12        -2.4728    1.2149   -2.1908 C.3       1 <0>        -0.1366
     16 C13        -2.4959    1.1674   -0.6428 C.3       1 <0>        -0.0840
     17 C14        -1.1310   -0.8378   -0.0430 C.2       1 <0>        -0.2361
     18 C15        -0.7723   -1.2711    1.2199 C.2       1 <0>         0.2226
     19 C16         0.5437   -1.7256    1.4377 C.2       1 <0>        -0.2887
     20 C17         1.4261   -1.7412    0.4157 C.2       1 <0>         0.1794
     21 N2          1.0662   -1.3141   -0.8231 N.am      1 <0>        -0.4988
     22 C18        -0.1796   -0.8681   -1.0693 C.2       1 <0>         0.5394
     23 O3         -0.4805   -0.4888   -2.1904 O.2       1 <0>        -0.5139
     24 C19         2.0503   -1.3390   -1.9081 C.3       1 <0>         0.0868
     25 C20         2.0406   -2.7165   -2.5738 C.3       1 <0>         0.0613
     26 O4          0.7767   -2.9318   -3.2048 O.3       1 <0>        -0.5514
     27 C21         2.8305   -2.2332    0.6536 C.3       1 <0>        -0.1300
     28 O5         -1.6705   -1.2540    2.2337 O.3       1 <0>        -0.4361
     29 O6         -3.9249   -2.7700    0.1179 O.3       1 <0>        -0.4502
     30 H1         -6.8833   -0.9021    4.0829 H         1 <0>         0.0888
     31 H2         -5.8615   -2.2748    4.5723 H         1 <0>         0.0896
     32 H3         -5.4772   -0.6323    5.1404 H         1 <0>         0.0769
     33 H4         -5.3841   -2.9268    2.3228 H         1 <0>         0.1419
     34 H5         -4.3803    2.2092    3.4765 H         1 <0>         0.1079
     35 H6         -5.5080    1.1690    4.3789 H         1 <0>         0.1002
     36 H7         -3.6372    1.7752    5.8369 H         1 <0>         0.0589
     37 H8         -3.5348    0.0410    5.4494 H         1 <0>         0.0460
     38 H9         -1.4414    1.1479    5.1361 H         1 <0>         0.3736
     39 H10        -2.3879   -1.7551   -1.9480 H         1 <0>         0.0660
     40 H11        -4.0314   -1.5711   -1.2725 H         1 <0>         0.0739
     41 H12        -4.4585    0.3650   -2.5124 H         1 <0>         0.0468
     42 H13        -3.1908   -0.3012   -3.5890 H         1 <0>         0.0561
     43 H14        -2.8612    2.1665   -2.5539 H         1 <0>         0.0443
     44 H15        -1.4654    1.0386   -2.5677 H         1 <0>         0.0961
     45 H16        -3.3887    1.6613   -0.2593 H         1 <0>         0.0653
     46 H17        -1.5987    1.6299   -0.2315 H         1 <0>         0.0564
     47 H18         0.8446   -2.0637    2.4182 H         1 <0>         0.1420
     48 H19         1.7974   -0.5772   -2.6456 H         1 <0>         0.1108
     49 H20         3.0423   -1.1379   -1.5036 H         1 <0>         0.1009
     50 H21         2.8327   -2.7644   -3.3211 H         1 <0>         0.0612
     51 H22         2.2058   -3.4858   -1.8195 H         1 <0>         0.0464
     52 H23         0.6992   -3.7876   -3.6483 H         1 <0>         0.3770
     53 H24         3.4580   -1.4009    0.9724 H         1 <0>         0.0899
     54 H25         2.8207   -2.9988    1.4294 H         1 <0>         0.0901
     55 H26         3.2286   -2.6558   -0.2689 H         1 <0>         0.0781
     56 H27        -1.3201   -1.5770    3.0751 H         1 <0>         0.3733
     57 H28        -4.4245   -3.5732    0.3189 H         1 <0>         0.3862
@<TRIPOS>BOND
     1    1    2 1
     2    1   30 1
     3    1   31 1
     4    1   32 1
     5    2    8 1
     6    2    3 2
     7    3    4 1
     8    3   33 1
     9    4    5 2
    10    4   29 1
    11    5    6 1
    12    5   12 1
    13    6    7 2
    14    6    8 am
    15    8    9 1
    16    9   10 1
    17    9   34 1
    18    9   35 1
    19   10   11 1
    20   10   36 1
    21   10   37 1
    22   11   38 1
    23   12   16 1
    24   12   13 1
    25   12   17 1
    26   13   14 1
    27   13   39 1
    28   13   40 1
    29   14   15 1
    30   14   41 1
    31   14   42 1
    32   15   16 1
    33   15   43 1
    34   15   44 1
    35   16   45 1
    36   16   46 1
    37   17   22 1
    38   17   18 2
    39   18   19 1
    40   18   28 1
    41   19   20 2
    42   19   47 1
    43   20   21 1
    44   20   27 1
    45   21   22 am
    46   21   24 1
    47   22   23 2
    48   24   25 1
    49   24   48 1
    50   24   49 1
    51   25   26 1
    52   25   50 1
    53   25   51 1
    54   26   52 1
    55   27   53 1
    56   27   54 1
    57   27   55 1
    58   28   56 1
    59   29   57 1
