@<TRIPOS>MOLECULE
ZINC39984370
   54    57     0     0     0
SMALL
USER_CHARGES

@<TRIPOS>ATOM
      1 C1         -2.4246    1.5991    1.1201 C.3       1 <0>        -0.1751
      2 C2         -2.3776    0.0947    1.0457 C.2       1 <0>         0.5145
      3 O1         -3.2465   -0.5661    1.5743 O.2       1 <0>        -0.5166
      4 N1         -1.3699   -0.5165    0.3919 N.am      1 <0>        -0.6800
      5 C3         -1.2716   -1.9123    0.4059 C.ar      1 <0>         0.2181
      6 C4         -0.0241   -2.5217    0.4351 C.ar      1 <0>        -0.1636
      7 C5          0.0695   -3.8996    0.4488 C.ar      1 <0>         0.0056
      8 C6         -1.0773   -4.6722    0.4335 C.ar      1 <0>        -0.6749
      9 C7         -2.3210   -4.0684    0.4040 C.ar      1 <0>         0.0051
     10 C8         -2.4215   -2.6909    0.3964 C.ar      1 <0>        -0.1412
     11 S1         -0.9536   -6.4297    0.4511 S.o2      1 <0>         2.6279
     12 O2         -2.1565   -6.9273   -0.1187 O.2       1 <0>        -0.9314
     13 O3          0.3276   -6.7519   -0.0725 O.2       1 <0>        -0.9322
     14 N2         -0.9495   -6.9045    2.0376 N.2       1 <0>        -0.8244
     15 C9         -0.8660   -8.1668    2.3383 C.2       1 <0>         0.4372
     16 C10        -0.8677   -8.6130    3.7829 C.3       1 <0>         0.3080
     17 H1         -1.7860   -8.2479    4.2428 H         1 <0>         0.1911
     18 N3         -0.7712  -10.0555    4.0566 N.pl3     1 <0>        -0.5160
     19 C11        -0.6892  -10.8762    3.0467 C.ar      1 <0>         0.3343
     20 C12        -0.5909  -12.3268    3.2664 C.ar      1 <0>        -0.2040
     21 C13        -0.5080  -13.1456    2.1949 C.ar      1 <0>         0.0545
     22 C14        -0.5135  -12.6466    0.8817 C.ar      1 <0>        -0.0646
     23 C15        -0.6011  -11.3281    0.6016 C.ar      1 <0>        -0.0828
     24 C16        -0.6928  -10.3771    1.6495 C.ar      1 <0>         0.2865
     25 N4         -0.7826   -9.0936    1.3705 N.2       1 <0>        -0.4521
     26 N5          0.2553   -7.9551    4.4554 N.pl3     1 <0>        -0.7129
     27 C17         0.0816   -7.4026    5.7192 C.ar      1 <0>         0.2125
     28 C18         1.1692   -6.8521    6.3921 C.ar      1 <0>        -0.1711
     29 C19         1.0012   -6.3060    7.6385 C.ar      1 <0>        -0.0025
     30 C20        -0.2643   -6.3023    8.2338 C.ar      1 <0>        -0.1561
     31 C21        -1.3546   -6.8561    7.5551 C.ar      1 <0>        -0.0085
     32 C22        -1.1807   -7.3958    6.3068 C.ar      1 <0>        -0.2054
     33 C23        -0.4485   -5.7166    9.5736 C.2       1 <0>         0.5201
     34 O4          0.4998   -5.2361   10.1623 O.2       1 <0>        -0.5058
     35 O5         -1.6686   -5.7138   10.1459 O.3       1 <0>        -0.5043
     36 H2         -3.3046    1.9076    1.6844 H         1 <0>         0.1024
     37 H3         -1.5269    1.9666    1.6173 H         1 <0>         0.0967
     38 H4         -2.4763    2.0113    0.1124 H         1 <0>         0.0974
     39 H5         -0.7128    0.0111   -0.0883 H         1 <0>         0.4205
     40 H6          0.8719   -1.9189    0.4467 H         1 <0>         0.1442
     41 H7          1.0393   -4.3742    0.4712 H         1 <0>         0.1458
     42 H8         -3.2148   -4.6745    0.3917 H         1 <0>         0.1456
     43 H9         -3.3932   -2.2199    0.3785 H         1 <0>         0.1554
     44 H10        -0.5847  -12.7310    4.2679 H         1 <0>         0.1856
     45 H11        -0.4353  -14.2116    2.3521 H         1 <0>         0.1817
     46 H12        -0.4445  -13.3464    0.0619 H         1 <0>         0.1781
     47 H13        -0.6012  -10.9963   -0.4262 H         1 <0>         0.1887
     48 H14         1.1201   -7.9049    4.0189 H         1 <0>         0.4221
     49 H15         2.1462   -6.8556    5.9319 H         1 <0>         0.1415
     50 H16         1.8453   -5.8795    8.1601 H         1 <0>         0.1502
     51 H17        -2.3332   -6.8548    8.0120 H         1 <0>         0.1492
     52 H18        -2.0230   -7.8199    5.7804 H         1 <0>         0.1281
     53 H19        -1.6904   -5.3086   11.0237 H         1 <0>         0.4188
     54 H20        -0.7683  -10.3883    4.9677 H         1 <0>         0.4577
@<TRIPOS>BOND
     1    1    2 1
     2    1   36 1
     3    1   37 1
     4    1   38 1
     5    2    3 2
     6    2    4 am
     7    4    5 1
     8    4   39 1
     9    5   10 ar
    10    5    6 ar
    11    6    7 ar
    12    6   40 1
    13    7    8 ar
    14    7   41 1
    15    8    9 ar
    16    8   11 1
    17    9   10 ar
    18    9   42 1
    19   10   43 1
    20   11   12 2
    21   11   13 2
    22   11   14 1
    23   14   15 2
    24   15   25 1
    25   15   16 1
    26   16   17 1
    27   16   18 1
    28   16   26 1
    29   18   19 2
    30   18   54 1
    31   19   24 ar
    32   19   20 ar
    33   20   21 ar
    34   20   44 1
    35   21   22 ar
    36   21   45 1
    37   22   23 ar
    38   22   46 1
    39   23   24 ar
    40   23   47 1
    41   24   25 2
    42   26   27 1
    43   26   48 1
    44   27   32 ar
    45   27   28 ar
    46   28   29 ar
    47   28   49 1
    48   29   30 ar
    49   29   50 1
    50   30   31 ar
    51   30   33 1
    52   31   32 ar
    53   31   51 1
    54   32   52 1
    55   33   34 2
    56   33   35 1
    57   35   53 1
