@<TRIPOS>MOLECULE
ZINC12566283
   56    58     0     0     0
SMALL
USER_CHARGES
[(1R)-1-methyl-2-oxo-2-(p-tolyl)ethyl] 2-[(2-methyl-5-nitro-phenyl)sulfonylamino]benzoate
@<TRIPOS>ATOM
      1 C1         -5.0785   11.3151    4.6186 C.3       1 <0>        -0.1246
      2 C2         -4.9828    9.8112    4.6122 C.ar      1 <0>        -0.0462
      3 C3         -6.1207    9.0481    4.8084 C.ar      1 <0>        -0.1320
      4 C4         -6.0414    7.6716    4.8040 C.ar      1 <0>        -0.0502
      5 C5         -4.8069    7.0467    4.6005 C.ar      1 <0>        -0.1764
      6 C6         -3.6608    7.8248    4.4082 C.ar      1 <0>        -0.0712
      7 C7         -3.7574    9.2002    4.4106 C.ar      1 <0>        -0.1317
      8 C8         -4.7133    5.5780    4.5947 C.2       1 <0>         0.3985
      9 O1         -5.7081    4.9065    4.7667 O.2       1 <0>        -0.4223
     10 C9         -3.3811    4.9087    4.3751 C.3       1 <0>         0.0608
     11 H1         -2.8714    5.4037    3.6714 H         1 <0>         0.1017
     12 C10        -2.5850    4.9162    5.6817 C.3       1 <0>        -0.1693
     13 O2         -3.5930    3.5381    3.9453 O.3       1 <0>        -0.3270
     14 C11        -2.6575    2.9979    3.1396 C.2       1 <0>         0.5195
     15 O3         -1.6910    3.6544    2.8053 O.2       1 <0>        -0.5095
     16 C12        -2.8064    1.6119    2.6641 C.ar      1 <0>        -0.1569
     17 C13        -3.9189    0.8542    3.0419 C.ar      1 <0>        -0.0338
     18 C14        -4.0489   -0.4433    2.5987 C.ar      1 <0>        -0.1458
     19 C15        -3.0846   -1.0022    1.7745 C.ar      1 <0>        -0.0427
     20 C16        -1.9838   -0.2662    1.3879 C.ar      1 <0>        -0.1914
     21 C17        -1.8344    1.0446    1.8245 C.ar      1 <0>         0.2217
     22 N1         -0.7273    1.7873    1.4372 N.pl3     1 <0>        -1.0411
     23 S1         -0.0883    1.5925   -0.0781 S.o2      1 <0>         2.6937
     24 O4          0.1771    0.2049   -0.2315 O.2       1 <0>        -0.9358
     25 O5          0.9212    2.5819   -0.2235 O.2       1 <0>        -0.9279
     26 C18        -1.3565    1.9934   -1.2337 C.ar      1 <0>        -0.6889
     27 C19        -1.8800    1.0112   -2.0540 C.ar      1 <0>         0.0531
     28 C20        -2.8782    1.3246   -2.9572 C.ar      1 <0>        -0.0707
     29 C21        -3.3459    2.6225   -3.0476 C.ar      1 <0>         0.0051
     30 C22        -2.8189    3.6055   -2.2313 C.ar      1 <0>        -0.1378
     31 C23        -1.8241    3.2908   -1.3242 C.ar      1 <0>         0.0743
     32 C24        -1.2492    4.3627   -0.4344 C.3       1 <0>        -0.1537
     33 N2         -3.4422    0.2720   -3.8317 N.pl3     1 <0>         0.0277
     34 O6         -4.3183    0.5493   -4.6311 O.2       1 <0>        -0.1517
     35 O7         -3.0301   -0.8714   -3.7520 O.3       1 <0>        -0.1480
     36 H2         -4.9313   11.6842    5.6336 H         1 <0>         0.0788
     37 H3         -4.3109   11.7308    3.9659 H         1 <0>         0.0723
     38 H4         -6.0626   11.6181    4.2610 H         1 <0>         0.0722
     39 H5         -7.0734    9.5322    4.9651 H         1 <0>         0.1327
     40 H6         -6.9302    7.0775    4.9569 H         1 <0>         0.1365
     41 H7         -2.7031    7.3495    4.2549 H         1 <0>         0.1324
     42 H8         -2.8739    9.8025    4.2582 H         1 <0>         0.1326
     43 H9         -1.6214    4.4321    5.5228 H         1 <0>         0.0801
     44 H10        -2.4259    5.9451    6.0043 H         1 <0>         0.0869
     45 H11        -3.1406    4.3767    6.4487 H         1 <0>         0.0769
     46 H12        -4.6731    1.2843    3.6842 H         1 <0>         0.1472
     47 H13        -4.9068   -1.0286    2.8953 H         1 <0>         0.1397
     48 H14        -3.1956   -2.0208    1.4331 H         1 <0>         0.1430
     49 H15        -1.2371   -0.7092    0.7456 H         1 <0>         0.1712
     50 H16        -0.3280    2.4204    2.0542 H         1 <0>         0.4413
     51 H17        -1.5115   -0.0018   -1.9864 H         1 <0>         0.1749
     52 H18        -4.1227    2.8684   -3.7565 H         1 <0>         0.1649
     53 H19        -3.1840    4.6194   -2.3022 H         1 <0>         0.1601
     54 H20        -0.4501    4.8831   -0.9623 H         1 <0>         0.1119
     55 H21        -2.0321    5.0731   -0.1690 H         1 <0>         0.0945
     56 H22        -0.8496    3.9071    0.4716 H         1 <0>         0.0806
@<TRIPOS>BOND
     1    1    2 1
     2    1   36 1
     3    1   37 1
     4    1   38 1
     5    2    7 ar
     6    2    3 ar
     7    3    4 ar
     8    3   39 1
     9    4    5 ar
    10    4   40 1
    11    5    6 ar
    12    5    8 1
    13    6    7 ar
    14    6   41 1
    15    7   42 1
    16    8    9 2
    17    8   10 1
    18   10   11 1
    19   10   12 1
    20   10   13 1
    21   12   43 1
    22   12   44 1
    23   12   45 1
    24   13   14 1
    25   14   15 2
    26   14   16 1
    27   16   21 ar
    28   16   17 ar
    29   17   18 ar
    30   17   46 1
    31   18   19 ar
    32   18   47 1
    33   19   20 ar
    34   19   48 1
    35   20   21 ar
    36   20   49 1
    37   21   22 1
    38   22   23 1
    39   22   50 1
    40   23   24 2
    41   23   25 2
    42   23   26 1
    43   26   31 ar
    44   26   27 ar
    45   27   28 ar
    46   27   51 1
    47   28   29 ar
    48   28   33 1
    49   29   30 ar
    50   29   52 1
    51   30   31 ar
    52   30   53 1
    53   31   32 1
    54   32   54 1
    55   32   55 1
    56   32   56 1
    57   33   34 2
    58   33   35 1
