@<TRIPOS>MOLECULE
ZINC66195179
   57    59     0     0     0
SMALL
USER_CHARGES

@<TRIPOS>ATOM
      1 C1         -0.0495    1.4247   -0.0174 C.3       1 <0>         0.0530
      2 O1         -0.0236   -0.0040   -0.0194 O.3       1 <0>        -0.3652
      3 C2          0.5771   -0.6030   -1.0649 C.2       1 <0>         0.6486
      4 O2          1.0660    0.0690   -1.9514 O.2       1 <0>        -0.5633
      5 N1          0.6361   -1.9480   -1.1282 N.am      1 <0>        -0.5928
      6 C3          0.0442   -2.7741   -0.0671 C.3       1 <0>         0.1080
      7 C4          1.1083   -3.7459    0.4526 C.3       1 <0>        -0.1317
      8 C5          1.6802   -4.5449   -0.7207 C.3       1 <0>        -0.1292
      9 C6          2.3433   -3.5897   -1.7157 C.3       1 <0>         0.1511
     10 H1          3.1319   -3.0303   -1.2125 H         1 <0>         0.0950
     11 C7          1.2883   -2.6161   -2.2627 C.3       1 <0>         0.1174
     12 N2          2.9185   -4.3582   -2.8223 N.am      1 <0>        -0.7390
     13 C8          3.9475   -3.8524   -3.5308 C.2       1 <0>         0.7093
     14 O3          4.3394   -2.7225   -3.3114 O.2       1 <0>        -0.5788
     15 N3          4.5420   -4.5991   -4.4824 N.am      1 <0>        -0.6264
     16 C9          4.0050   -5.9183   -4.8429 C.3       1 <0>         0.1091
     17 C10         3.7765   -5.9606   -6.3571 C.3       1 <0>        -0.1348
     18 C11         5.0769   -5.5935   -7.0757 C.3       1 <0>        -0.1017
     19 C12         5.4914   -4.1718   -6.6893 C.3       1 <0>        -0.1245
     20 H2          4.6964   -3.4757   -6.9566 H         1 <0>         0.0984
     21 C13         5.7358   -4.1067   -5.1831 C.3       1 <0>         0.1437
     22 C14         6.7540   -3.7991   -7.4228 C.2       1 <0>         0.5264
     23 O4          7.5124   -4.6656   -7.8035 O.2       1 <0>        -0.5311
     24 N4          7.0404   -2.5029   -7.6557 N.am      1 <0>        -0.6152
     25 C15         6.0893   -1.4401   -7.2935 C.3       1 <0>         0.0684
     26 C16         6.8382   -0.3771   -6.4817 C.3       1 <0>         0.0471
     27 O5          8.0029    0.0319   -7.2029 O.3       1 <0>        -0.3773
     28 C17         8.9542   -1.0131   -7.4194 C.3       1 <0>         0.0470
     29 C18         8.3160   -2.1082   -8.2741 C.3       1 <0>         0.0759
     30 H3          0.9714    1.8067   -0.0268 H         1 <0>         0.0616
     31 H4         -0.5784    1.7798   -0.9019 H         1 <0>         0.0611
     32 H5         -0.5612    1.7776    0.8780 H         1 <0>         0.1044
     33 H6         -0.2954   -2.1343    0.7474 H         1 <0>         0.0968
     34 H7         -0.7989   -3.3360   -0.4690 H         1 <0>         0.0741
     35 H8          1.9086   -3.1851    0.9353 H         1 <0>         0.0731
     36 H9          0.6568   -4.4289    1.1721 H         1 <0>         0.0873
     37 H10         2.4200   -5.2546   -0.3505 H         1 <0>         0.0771
     38 H11         0.8753   -5.0861   -1.2182 H         1 <0>         0.0733
     39 H12         0.5446   -3.1654   -2.8400 H         1 <0>         0.0727
     40 H13         1.7698   -1.8721   -2.8973 H         1 <0>         0.1042
     41 H14         2.5589   -5.2310   -3.0451 H         1 <0>         0.3978
     42 H15         4.7176   -6.6928   -4.5591 H         1 <0>         0.0753
     43 H16         3.0594   -6.0817   -4.3260 H         1 <0>         0.0794
     44 H17         3.4695   -6.9644   -6.6508 H         1 <0>         0.0844
     45 H18         2.9976   -5.2476   -6.6275 H         1 <0>         0.0698
     46 H19         5.8618   -6.2921   -6.7857 H         1 <0>         0.0796
     47 H20         4.9237   -5.6467   -8.1535 H         1 <0>         0.0722
     48 H21         5.9318   -3.0751   -4.8905 H         1 <0>         0.0985
     49 H22         6.5926   -4.7302   -4.9277 H         1 <0>         0.0743
     50 H23         5.6796   -0.9902   -8.1979 H         1 <0>         0.0815
     51 H24         5.2818   -1.8591   -6.6931 H         1 <0>         0.0986
     52 H25         6.1885    0.4833   -6.3214 H         1 <0>         0.1102
     53 H26         7.1340   -0.7952   -5.5195 H         1 <0>         0.0599
     54 H27         9.8268   -0.6102   -7.9337 H         1 <0>         0.1091
     55 H28         9.2577   -1.4335   -6.4607 H         1 <0>         0.0566
     56 H29         8.9824   -2.9695   -8.3227 H         1 <0>         0.1023
     57 H30         8.1344   -1.7268   -9.2789 H         1 <0>         0.0775
@<TRIPOS>BOND
     1    1    2 1
     2    1   30 1
     3    1   31 1
     4    1   32 1
     5    2    3 1
     6    3    4 2
     7    3    5 am
     8    5   11 1
     9    5    6 1
    10    6    7 1
    11    6   33 1
    12    6   34 1
    13    7    8 1
    14    7   35 1
    15    7   36 1
    16    8    9 1
    17    8   37 1
    18    8   38 1
    19    9   10 1
    20    9   11 1
    21    9   12 1
    22   11   39 1
    23   11   40 1
    24   12   13 am
    25   12   41 1
    26   13   14 2
    27   13   15 am
    28   15   21 1
    29   15   16 1
    30   16   17 1
    31   16   42 1
    32   16   43 1
    33   17   18 1
    34   17   44 1
    35   17   45 1
    36   18   19 1
    37   18   46 1
    38   18   47 1
    39   19   20 1
    40   19   21 1
    41   19   22 1
    42   21   48 1
    43   21   49 1
    44   22   23 2
    45   22   24 am
    46   24   29 1
    47   24   25 1
    48   25   26 1
    49   25   50 1
    50   25   51 1
    51   26   27 1
    52   26   52 1
    53   26   53 1
    54   27   28 1
    55   28   29 1
    56   28   54 1
    57   28   55 1
    58   29   56 1
    59   29   57 1
