@<TRIPOS>MOLECULE
ZINC42135973
   39    41     0     0     0
SMALL
USER_CHARGES

@<TRIPOS>ATOM
      1 C1         -0.0184    1.5028    0.0103 C.3       1 <0>        -0.1130
      2 C2          0.0021   -0.0041    0.0020 C.2       1 <0>         0.1457
      3 C3          0.0079   -0.7958   -1.0953 C.2       1 <0>        -0.3127
      4 C4          0.0284   -2.1267   -0.6656 C.2       1 <0>         0.0440
      5 N1          0.0347   -2.1338    0.6427 N.2       1 <0>        -0.2618
      6 N2          0.0237   -0.8054    1.0876 N.pl3     1 <0>        -0.3523
      7 C5          0.0311   -0.3643    2.4845 C.3       1 <0>         0.0873
      8 C6         -0.0058   -0.3266   -2.5273 C.3       1 <0>         0.1094
      9 H1         -0.6085    0.5781   -2.6075 H         1 <0>         0.1557
     10 C7          1.4249   -0.0279   -2.9798 C.3       1 <0>        -0.1761
     11 N3         -0.5805   -1.3751   -3.3807 N.4       1 <0>        -0.4884
     12 C8         -0.7045   -0.8738   -4.7560 C.3       1 <0>         0.0452
     13 H2          0.2550   -0.4997   -5.1131 H         1 <0>         0.1896
     14 C9         -1.2232   -1.9594   -5.6705 C.ar      1 <0>        -0.2084
     15 C10        -2.4309   -1.4981   -6.1791 C.ar      1 <0>         0.1818
     16 C11        -3.1424   -2.3053   -7.0644 C.ar      1 <0>        -0.1193
     17 C12        -2.6483   -3.5423   -7.4247 C.ar      1 <0>        -0.0336
     18 C13        -1.4456   -3.9914   -6.9119 C.ar      1 <0>        -0.1145
     19 C14        -0.7317   -3.1946   -6.0315 C.ar      1 <0>         0.0288
     20 Cl1         0.7794   -3.7522   -5.3838 Cl        1 <0>        -0.0412
     21 N4         -2.7156   -0.2304   -5.6706 N.am      1 <0>        -0.6406
     22 C15        -1.7582    0.2106   -4.8323 C.2       1 <0>         0.5276
     23 O1         -1.7420    1.2733   -4.2481 O.2       1 <0>        -0.4429
     24 H3          1.0042    1.8801    0.0026 H         1 <0>         0.0964
     25 H4         -0.5455    1.8639   -0.8728 H         1 <0>         0.0935
     26 H5         -0.5286    1.8543    0.9071 H         1 <0>         0.0862
     27 H6          0.0370   -2.9981   -1.3036 H         1 <0>         0.1811
     28 H7         -0.9946   -0.2692    2.8409 H         1 <0>         0.0883
     29 H8          0.5611   -1.0963    3.0940 H         1 <0>         0.1018
     30 H9          0.5322    0.6009    2.5581 H         1 <0>         0.0981
     31 H10         2.0277   -0.9325   -2.8997 H         1 <0>         0.0843
     32 H11         1.4150    0.3115   -4.0156 H         1 <0>         0.0796
     33 H12         1.8513    0.7501   -2.3466 H         1 <0>         0.1105
     34 H13         0.0219   -2.1845   -3.3708 H         1 <0>         0.4281
     35 H14        -4.0830   -1.9621   -7.4692 H         1 <0>         0.1522
     36 H15        -3.2047   -4.1635   -8.1110 H         1 <0>         0.1601
     37 H16        -1.0638   -4.9607   -7.1965 H         1 <0>         0.1587
     38 H17        -3.5113    0.2765   -5.8962 H         1 <0>         0.4387
     39 H18        -1.4924   -1.6301   -3.0322 H         1 <0>         0.4322
@<TRIPOS>BOND
     1    1    2 1
     2    1   24 1
     3    1   25 1
     4    1   26 1
     5    2    6 1
     6    2    3 2
     7    3    4 1
     8    3    8 1
     9    4    5 2
    10    4   27 1
    11    5    6 1
    12    6    7 1
    13    7   28 1
    14    7   29 1
    15    7   30 1
    16    8    9 1
    17    8   10 1
    18    8   11 1
    19   10   31 1
    20   10   32 1
    21   10   33 1
    22   11   12 1
    23   11   34 1
    24   11   39 1
    25   12   13 1
    26   12   22 1
    27   12   14 1
    28   14   19 ar
    29   14   15 ar
    30   15   16 ar
    31   15   21 1
    32   16   17 ar
    33   16   35 1
    34   17   18 ar
    35   17   36 1
    36   18   19 ar
    37   18   37 1
    38   19   20 1
    39   21   22 am
    40   21   38 1
    41   22   23 2
