@<TRIPOS>MOLECULE
ZINC22929151
   48    50     0     0     0
SMALL
USER_CHARGES
2-[[4-(4-methoxyphenyl)-5-methyl-1,2,4-triazol-3-yl]sulfanyl]-N-(2-methyl-3-nitro-phenyl)acetamide
@<TRIPOS>ATOM
      1 C1          1.1161    1.6128   -4.6303 C.3       1 <0>        -0.1210
      2 C2         -0.3757    1.8234   -4.6649 C.ar      1 <0>        -0.0523
      3 C3         -1.0871    1.9536   -3.4792 C.ar      1 <0>         0.1553
      4 C4         -2.4607    2.1532   -3.5155 C.ar      1 <0>        -0.0875
      5 C5         -3.1161    2.2165   -4.7298 C.ar      1 <0>        -0.0993
      6 C6         -2.4058    2.0809   -5.9083 C.ar      1 <0>        -0.0709
      7 C7         -1.0376    1.8819   -5.8755 C.ar      1 <0>        -0.0272
      8 N1         -0.2811    1.7367   -7.1394 N.pl3     1 <0>         0.0311
      9 O1         -0.8361    1.9279   -8.2067 O.2       1 <0>        -0.1621
     10 O2          0.8963    1.4261   -7.1123 O.3       1 <0>        -0.1550
     11 N2         -0.4202    1.8894   -2.2508 N.am      1 <0>        -0.6720
     12 C8         -0.9928    2.4056   -1.1453 C.2       1 <0>         0.5408
     13 O3         -2.0424    3.0075   -1.2307 O.2       1 <0>        -0.5029
     14 C9         -0.3291    2.2351    0.1968 C.3       1 <0>        -0.1560
     15 S1         -1.3346    3.0330    1.4729 S.3       1 <0>         0.0955
     16 C10        -0.3531    2.6892    2.8953 C.2       1 <0>         0.1404
     17 N3          0.7782    2.0230    2.9211 N.2       1 <0>        -0.2890
     18 N4          1.2241    1.9645    4.1250 N.2       1 <0>        -0.2807
     19 C11         0.4076    2.5757    4.9361 C.2       1 <0>         0.1988
     20 N5         -0.6281    3.0604    4.1825 N.pl3     1 <0>        -0.4104
     21 C12        -1.7400    3.7872    4.6366 C.ar      1 <0>         0.0571
     22 C13        -1.5662    5.0483    5.1897 C.ar      1 <0>        -0.0551
     23 C14        -2.6607    5.7649    5.6319 C.ar      1 <0>        -0.1961
     24 C15        -3.9328    5.2203    5.5325 C.ar      1 <0>         0.1514
     25 C16        -4.1063    3.9575    4.9849 C.ar      1 <0>        -0.1359
     26 C17        -3.0129    3.2425    4.5377 C.ar      1 <0>        -0.0555
     27 O4         -5.0096    5.9241    5.9722 O.3       1 <0>        -0.3093
     28 C18        -4.7575    7.2177    6.5246 C.3       1 <0>         0.0190
     29 C19         0.5726    2.7225    6.4269 C.3       1 <0>        -0.0728
     30 H1          1.4597    1.5946   -3.5855 H         1 <0>         0.0653
     31 H2          1.6148    2.4339   -5.1661 H         1 <0>         0.0928
     32 H3          1.3626    0.6562   -5.1141 H         1 <0>         0.0999
     33 H4         -3.0162    2.2585   -2.5953 H         1 <0>         0.1720
     34 H5         -4.1845    2.3718   -4.7587 H         1 <0>         0.1523
     35 H6         -2.9205    2.1307   -6.8564 H         1 <0>         0.1548
     36 H7          0.5715    1.4176   -2.1873 H         1 <0>         0.4456
     37 H8         -0.2313    1.1633    0.4240 H         1 <0>         0.1365
     38 H9          0.6687    2.6975    0.1738 H         1 <0>         0.1350
     39 H10        -0.5755    5.4707    5.2709 H         1 <0>         0.1349
     40 H11        -2.5260    6.7478    6.0585 H         1 <0>         0.1427
     41 H12        -5.0967    3.5337    4.9080 H         1 <0>         0.1465
     42 H13        -3.1480    2.2594    4.1115 H         1 <0>         0.1399
     43 H14        -5.7079    7.6739    6.8385 H         1 <0>         0.1079
     44 H15        -4.2787    7.8536    5.7654 H         1 <0>         0.0611
     45 H16        -4.0919    7.1213    7.3950 H         1 <0>         0.0609
     46 H17        -0.2777    3.2879    6.8360 H         1 <0>         0.0800
     47 H18         1.5078    3.2606    6.6411 H         1 <0>         0.0966
     48 H19         0.6082    1.7262    6.8917 H         1 <0>         0.0969
@<TRIPOS>BOND
     1    1    2 1
     2    1   30 1
     3    1   31 1
     4    1   32 1
     5    2    7 ar
     6    2    3 ar
     7    3    4 ar
     8    3   11 1
     9    4    5 ar
    10    4   33 1
    11    5    6 ar
    12    5   34 1
    13    6    7 ar
    14    6   35 1
    15    7    8 1
    16    8    9 2
    17    8   10 1
    18   11   12 am
    19   11   36 1
    20   12   13 2
    21   12   14 1
    22   14   15 1
    23   14   37 1
    24   14   38 1
    25   15   16 1
    26   16   20 1
    27   16   17 2
    28   17   18 1
    29   18   19 2
    30   19   20 1
    31   19   29 1
    32   20   21 1
    33   21   26 ar
    34   21   22 ar
    35   22   23 ar
    36   22   39 1
    37   23   24 ar
    38   23   40 1
    39   24   25 ar
    40   24   27 1
    41   25   26 ar
    42   25   41 1
    43   26   42 1
    44   27   28 1
    45   28   43 1
    46   28   44 1
    47   28   45 1
    48   29   46 1
    49   29   47 1
    50   29   48 1
