@<TRIPOS>MOLECULE
ZINC50634897
   36    37     0     0     0
SMALL
USER_CHARGES

@<TRIPOS>ATOM
      1 C1         -0.0187    1.5258    0.0104 C.3       1 <0>        -0.1706
      2 C2          0.0021   -0.0041    0.0020 C.3       1 <0>         0.1198
      3 N1         -1.3723   -0.5112    0.0124 N.pl3     1 <0>        -0.7032
      4 C3         -1.6078   -1.8815    0.0073 C.ar      1 <0>         0.5040
      5 C4         -2.9157   -2.3561    0.0115 C.ar      1 <0>        -0.7520
      6 C5         -3.1359   -3.7214    0.0064 C.ar      1 <0>         0.0962
      7 C6         -2.0359   -4.5704   -0.0029 C.ar      1 <0>        -0.2318
      8 C7         -0.7650   -4.0301   -0.0066 C.ar      1 <0>         0.2414
      9 N2         -0.5856   -2.7226   -0.0070 N.ar      1 <0>        -0.5371
     10 Br1        -2.2768   -6.4460   -0.0097 Br        1 <0>        -0.0272
     11 S1         -4.2731   -1.2328    0.0239 S.o2      1 <0>         2.6225
     12 O1         -4.0200   -0.2786   -0.9983 O.2       1 <0>        -0.9894
     13 O2         -5.4538   -2.0229    0.0530 O.2       1 <0>        -0.9855
     14 N3         -4.2169   -0.4126    1.4614 N.2       1 <0>        -1.0149
     15 C8         -5.1263    0.4998    1.7349 C.2       1 <0>         0.5194
     16 C9         -5.0789    1.2072    2.9594 C.2       1 <0>        -0.1580
     17 C10        -6.0267    2.1446    3.2223 C.2       1 <0>        -0.0038
     18 C11        -7.0365    2.3969    2.2777 C.2       1 <0>        -0.1719
     19 C12        -7.0691    1.7144    1.1139 C.2       1 <0>         0.1264
     20 N4         -6.1236    0.7746    0.8305 N.pl3     1 <0>        -0.6192
     21 C13        -8.0895    3.4356    2.5664 C.3       1 <0>        -0.1033
     22 H1          1.0039    1.9031    0.0027 H         1 <0>         0.0804
     23 H2         -0.5459    1.8868   -0.8726 H         1 <0>         0.0638
     24 H3         -0.5289    1.8773    0.9072 H         1 <0>         0.0639
     25 H4          0.5123   -0.3556   -0.8948 H         1 <0>         0.0735
     26 H5          0.5293   -0.3651    0.8851 H         1 <0>         0.0751
     27 H6         -2.1181    0.1091    0.0229 H         1 <0>         0.4130
     28 H7         -4.1401   -4.1188    0.0098 H         1 <0>         0.1608
     29 H8          0.0930   -4.6860   -0.0138 H         1 <0>         0.1759
     30 H9         -4.2982    1.0041    3.6774 H         1 <0>         0.1676
     31 H10        -6.0045    2.6928    4.1526 H         1 <0>         0.1521
     32 H11        -7.8507    1.9184    0.3971 H         1 <0>         0.1764
     33 H12        -7.7541    4.4051    2.1982 H         1 <0>         0.0756
     34 H13        -9.0187    3.1593    2.0681 H         1 <0>         0.0713
     35 H14        -8.2574    3.4936    3.6419 H         1 <0>         0.0756
     36 H15        -6.1572    0.2947   -0.0117 H         1 <0>         0.4135
@<TRIPOS>BOND
     1    1    2 1
     2    1   22 1
     3    1   23 1
     4    1   24 1
     5    2    3 1
     6    2   25 1
     7    2   26 1
     8    3    4 1
     9    3   27 1
    10    4    9 ar
    11    4    5 ar
    12    5    6 ar
    13    5   11 1
    14    6    7 ar
    15    6   28 1
    16    7    8 ar
    17    7   10 1
    18    8    9 ar
    19    8   29 1
    20   11   12 2
    21   11   13 2
    22   11   14 1
    23   14   15 2
    24   15   20 1
    25   15   16 1
    26   16   17 2
    27   16   30 1
    28   17   18 1
    29   17   31 1
    30   18   19 2
    31   18   21 1
    32   19   20 1
    33   19   32 1
    34   20   36 1
    35   21   33 1
    36   21   34 1
    37   21   35 1
