@<TRIPOS>MOLECULE
ZINC40473583
   39    41     0     0     0
SMALL
USER_CHARGES

@<TRIPOS>ATOM
      1 C1         -1.6491    0.4197    2.7469 C.ar      1 <0>        -0.1420
      2 C2         -0.8028    1.5103    2.8267 C.ar      1 <0>        -0.0860
      3 C3          0.4517    1.4632    2.2488 C.ar      1 <0>        -0.1328
      4 C4          0.8680    0.3187    1.5848 C.ar      1 <0>         0.1176
      5 C5          0.0150   -0.7788    1.5080 C.ar      1 <0>         0.0438
      6 C6         -1.2423   -0.7258    2.0883 C.ar      1 <0>        -0.1033
      7 N1          0.4356   -1.9433    0.8429 N.am      1 <0>        -0.5337
      8 C7          1.6326   -1.8494   -0.0104 C.3       1 <0>         0.0801
      9 C8          2.6696   -0.9993    0.7375 C.3       1 <0>         0.0094
     10 H1          2.9381   -1.4901    1.6730 H         1 <0>         0.0747
     11 O1          2.1012    0.2826    1.0150 O.3       1 <0>        -0.2688
     12 C9          3.8995   -0.8350   -0.1178 C.2       1 <0>         0.5070
     13 O2          4.2143    0.2695   -0.5271 O.co2     1 <0>        -0.6382
     14 O3          4.5798   -1.8066   -0.4003 O.co2     1 <0>        -0.6812
     15 C10        -0.2327   -3.1055    0.9813 C.2       1 <0>         0.5024
     16 O4         -1.1481   -3.1882    1.7728 O.2       1 <0>        -0.4749
     17 C11         0.1573   -4.3023    0.1526 C.3       1 <0>         0.0331
     18 C12         0.2021   -3.9298   -1.3501 C.3       1 <0>        -0.1533
     19 C13        -1.2894   -3.9939   -1.7628 C.3       1 <0>        -0.1222
     20 C14        -1.8474   -5.1996   -0.9787 C.3       1 <0>        -0.1223
     21 C15        -0.9276   -5.3956    0.2392 C.3       1 <0>        -0.1248
     22 N2          1.4555   -4.8301    0.5932 N.4       1 <0>        -0.6290
     23 H2         -2.6270    0.4611    3.2033 H         1 <0>         0.1296
     24 H3         -1.1237    2.4032    3.3428 H         1 <0>         0.1334
     25 H4          1.1083    2.3182    2.3139 H         1 <0>         0.1413
     26 H5         -1.9032   -1.5777    2.0261 H         1 <0>         0.1574
     27 H6          2.0346   -2.8456   -0.1948 H         1 <0>         0.0797
     28 H7          1.3761   -1.3723   -0.9563 H         1 <0>         0.1094
     29 H8          0.5979   -2.9235   -1.4870 H         1 <0>         0.1091
     30 H9          0.7897   -4.6567   -1.9109 H         1 <0>         0.1107
     31 H10        -1.8051   -3.0785   -1.4728 H         1 <0>         0.0797
     32 H11        -1.3814   -4.1612   -2.8360 H         1 <0>         0.0951
     33 H12        -2.8651   -4.9914   -0.6483 H         1 <0>         0.0854
     34 H13        -1.8328   -6.0915   -1.6051 H         1 <0>         0.0846
     35 H14        -0.4665   -6.3827    0.2038 H         1 <0>         0.0957
     36 H15        -1.4988   -5.2827    1.1606 H         1 <0>         0.1149
     37 H16         1.5719   -4.6559    1.5802 H         1 <0>         0.4380
     38 H17         1.4907   -5.8236    0.4206 H         1 <0>         0.4390
     39 H18         2.1955   -4.3734    0.0815 H         1 <0>         0.4416
@<TRIPOS>BOND
     1    1    6 ar
     2    1    2 ar
     3    1   23 1
     4    2    3 ar
     5    2   24 1
     6    3    4 ar
     7    3   25 1
     8    4   11 1
     9    4    5 ar
    10    5    6 ar
    11    5    7 1
    12    6   26 1
    13    7    8 1
    14    7   15 am
    15    8    9 1
    16    8   27 1
    17    8   28 1
    18    9   10 1
    19    9   11 1
    20    9   12 1
    21   12   13 2
    22   12   14 1
    23   15   16 2
    24   15   17 1
    25   17   21 1
    26   17   18 1
    27   17   22 1
    28   18   19 1
    29   18   29 1
    30   18   30 1
    31   19   20 1
    32   19   31 1
    33   19   32 1
    34   20   21 1
    35   20   33 1
    36   20   34 1
    37   21   35 1
    38   21   36 1
    39   22   37 1
    40   22   38 1
    41   22   39 1
