@<TRIPOS>MOLECULE
ZINC12525323
   40    42     0     0     0
SMALL
USER_CHARGES
N-(4-methanesulfonamido-3-methyl-phenyl)-1H-indazole-3-carboxamide
@<TRIPOS>ATOM
      1 C1         -2.6049    3.5652    2.7430 C.3       1 <0>        -0.1135
      2 C2         -2.9605    2.1465    2.3798 C.ar      1 <0>        -0.0841
      3 C3         -4.2211    1.6574    2.6596 C.ar      1 <0>        -0.0971
      4 C4         -4.5469    0.3485    2.3301 C.ar      1 <0>         0.1341
      5 C5         -3.6068   -0.4671    1.7138 C.ar      1 <0>        -0.1157
      6 C6         -2.3484    0.0234    1.4288 C.ar      1 <0>        -0.1511
      7 C7         -2.0223    1.3329    1.7584 C.ar      1 <0>         0.1346
      8 N1         -0.7470    1.8301    1.4695 N.pl3     1 <0>        -1.0528
      9 S1          0.0377    1.3478    0.0933 S.o2      1 <0>         2.6092
     10 O1          0.0769   -0.0703    0.1764 O.2       1 <0>        -0.9484
     11 O2          1.2394    2.1060    0.0764 O.2       1 <0>        -0.9511
     12 C8         -1.0461    1.8642   -1.2666 C.3       1 <0>        -0.6679
     13 N2         -5.8240   -0.1492    2.6189 N.am      1 <0>        -0.6601
     14 C9         -6.8983    0.6601    2.5316 C.2       1 <0>         0.6114
     15 O3         -6.7510    1.8418    2.2843 O.2       1 <0>        -0.5074
     16 C10        -8.2513    0.1131    2.7359 C.2       1 <0>        -0.0054
     17 C11        -9.5185    0.8535    2.6759 C.ar      1 <0>        -0.1068
     18 C12        -9.8876    2.1742    2.4374 C.ar      1 <0>        -0.0465
     19 C13       -11.2105    2.5185    2.4606 C.ar      1 <0>        -0.1348
     20 C14       -12.1839    1.5620    2.7190 C.ar      1 <0>        -0.0806
     21 C15       -11.8429    0.2598    2.9562 C.ar      1 <0>        -0.1179
     22 C16       -10.5040   -0.1181    2.9387 C.ar      1 <0>         0.0641
     23 N3         -9.8323   -1.2976    3.1279 N.pl3     1 <0>        -0.4109
     24 H1        -10.2726   -2.1708    3.3367 H         1 <0>         0.4569
     25 N4         -8.5648   -1.1367    3.0025 N.2       1 <0>        -0.2005
     26 H2         -2.8514    4.2258    1.9118 H         1 <0>         0.0760
     27 H3         -3.1686    3.8664    3.6260 H         1 <0>         0.0729
     28 H4         -1.5375    3.6296    2.9540 H         1 <0>         0.0652
     29 H5         -4.9522    2.2915    3.1392 H         1 <0>         0.1468
     30 H6         -3.8604   -1.4851    1.4573 H         1 <0>         0.1352
     31 H7         -1.6172   -0.6110    0.9499 H         1 <0>         0.1665
     32 H8         -0.3223    2.4574    2.0754 H         1 <0>         0.4261
     33 H9         -2.0158    1.3771   -1.1635 H         1 <0>         0.1314
     34 H10        -1.1778    2.9458   -1.2355 H         1 <0>         0.1320
     35 H11        -0.5961    1.5802   -2.2178 H         1 <0>         0.1343
     36 H12        -5.9353   -1.0763    2.8816 H         1 <0>         0.4184
     37 H13        -9.1344    2.9216    2.2360 H         1 <0>         0.1394
     38 H14       -11.5010    3.5422    2.2760 H         1 <0>         0.1328
     39 H15       -13.2244    1.8512    2.7332 H         1 <0>         0.1344
     40 H16       -12.6102   -0.4734    3.1558 H         1 <0>         0.1309
@<TRIPOS>BOND
     1    1    2 1
     2    1   26 1
     3    1   27 1
     4    1   28 1
     5    2    7 ar
     6    2    3 ar
     7    3    4 ar
     8    3   29 1
     9    4    5 ar
    10    4   13 1
    11    5    6 ar
    12    5   30 1
    13    6    7 ar
    14    6   31 1
    15    7    8 1
    16    8    9 1
    17    8   32 1
    18    9   10 2
    19    9   11 2
    20    9   12 1
    21   12   33 1
    22   12   34 1
    23   12   35 1
    24   13   14 am
    25   13   36 1
    26   14   15 2
    27   14   16 1
    28   16   25 2
    29   16   17 1
    30   17   22 ar
    31   17   18 ar
    32   18   19 ar
    33   18   37 1
    34   19   20 ar
    35   19   38 1
    36   20   21 ar
    37   20   39 1
    38   21   22 ar
    39   21   40 1
    40   22   23 1
    41   23   24 1
    42   23   25 1
