@<TRIPOS>MOLECULE
ZINC12083404
   34    36     0     0     0
SMALL
USER_CHARGES
4-nitro-N-(3-oxo-4H-1,4-benzoxazin-6-yl)benzamide
@<TRIPOS>ATOM
      1 C1          6.4074   -1.5363   -5.6441 C.ar      1 <0>        -0.0852
      2 C2          7.1990   -2.0900   -6.6290 C.ar      1 <0>        -0.0591
      3 C3          8.1385   -1.3134   -7.2837 C.ar      1 <0>        -0.0187
      4 C4          8.2862    0.0238   -6.9607 C.ar      1 <0>        -0.0584
      5 C5          7.4968    0.5915   -5.9821 C.ar      1 <0>        -0.0551
      6 C6          6.5473   -0.1865   -5.3173 C.ar      1 <0>        -0.0868
      7 C7          5.6979    0.4151   -4.2678 C.2       1 <0>         0.5586
      8 O1          5.8254    1.5898   -3.9818 O.2       1 <0>        -0.5002
      9 N1          4.7821   -0.3387   -3.6278 N.am      1 <0>        -0.6618
     10 C8          3.9118    0.2517   -2.7033 C.ar      1 <0>         0.1485
     11 C9          2.6065   -0.2084   -2.5872 C.ar      1 <0>        -0.1287
     12 C10         1.7438    0.3712   -1.6757 C.ar      1 <0>        -0.0850
     13 C11         2.1807    1.4129   -0.8759 C.ar      1 <0>         0.0677
     14 C12         3.4902    1.8774   -0.9905 C.ar      1 <0>         0.1142
     15 C13         4.3543    1.2971   -1.9034 C.ar      1 <0>        -0.1237
     16 N2          3.9168    2.9342   -0.1736 N.am      1 <0>        -0.6592
     17 C14         3.1771    3.2666    0.9067 C.2       1 <0>         0.4908
     18 O2          3.5110    4.1962    1.6106 O.2       1 <0>        -0.5049
     19 C15         1.9352    2.4773    1.2342 C.3       1 <0>         0.0504
     20 O3          1.3427    1.9912    0.0269 O.3       1 <0>        -0.2993
     21 N3          8.9891   -1.9158   -8.3348 N.pl3     1 <0>         0.0206
     22 O4          9.8167   -1.2346   -8.9131 O.2       1 <0>        -0.1472
     23 O5          8.8613   -3.0927   -8.6213 O.3       1 <0>        -0.1480
     24 H1          5.6780   -2.1448   -5.1302 H         1 <0>         0.1519
     25 H2          7.0883   -3.1330   -6.8864 H         1 <0>         0.1640
     26 H3          9.0215    0.6245   -7.4755 H         1 <0>         0.1648
     27 H4          7.6128    1.6355   -5.7311 H         1 <0>         0.1636
     28 H5          4.7258   -1.2902   -3.8077 H         1 <0>         0.4151
     29 H6          2.2646   -1.0214   -3.2106 H         1 <0>         0.1412
     30 H7          0.7292    0.0116   -1.5880 H         1 <0>         0.1485
     31 H8          5.3690    1.6559   -1.9929 H         1 <0>         0.1511
     32 H9          4.7309    3.4191   -0.3810 H         1 <0>         0.4188
     33 H10         2.1987    1.6349    1.8737 H         1 <0>         0.1028
     34 H11         1.2241    3.1189    1.7546 H         1 <0>         0.1489
@<TRIPOS>BOND
     1    1    6 ar
     2    1    2 ar
     3    1   24 1
     4    2    3 ar
     5    2   25 1
     6    3    4 ar
     7    3   21 1
     8    4    5 ar
     9    4   26 1
    10    5    6 ar
    11    5   27 1
    12    6    7 1
    13    7    8 2
    14    7    9 am
    15    9   10 1
    16    9   28 1
    17   10   15 ar
    18   10   11 ar
    19   11   12 ar
    20   11   29 1
    21   12   13 ar
    22   12   30 1
    23   13   20 1
    24   13   14 ar
    25   14   15 ar
    26   14   16 1
    27   15   31 1
    28   16   17 am
    29   16   32 1
    30   17   18 2
    31   17   19 1
    32   19   20 1
    33   19   33 1
    34   19   34 1
    35   21   22 2
    36   21   23 1
