@<TRIPOS>MOLECULE
ZINC41784385
   51    53     0     0     0
SMALL
USER_CHARGES

@<TRIPOS>ATOM
      1 C1          1.0708   -0.4541   -0.7687 C.ar      1 <0>        -0.0943
      2 C2          2.2556    0.2533   -0.7824 C.ar      1 <0>        -0.0903
      3 C3          2.3797    1.4151   -0.0317 C.ar      1 <0>         0.1447
      4 C4          1.3115    1.8657    0.7329 C.ar      1 <0>        -0.1117
      5 C5          0.1262    1.1591    0.7469 C.ar      1 <0>        -0.1079
      6 C6          0.0017   -0.0036   -0.0038 C.ar      1 <0>         0.1322
      7 N1         -1.1986   -0.7195    0.0101 N.am      1 <0>        -0.6394
      8 C7         -1.1833   -2.0628   -0.0990 C.2       1 <0>         0.5076
      9 O1         -0.1259   -2.6586   -0.1129 O.2       1 <0>        -0.4947
     10 C8         -2.4674   -2.8181   -0.2028 C.2       1 <0>         0.5145
     11 O2         -3.5247   -2.2223   -0.1889 O.2       1 <0>        -0.5072
     12 N2         -2.4522   -4.1613   -0.3119 N.am      1 <0>        -0.7038
     13 C9         -3.7119   -4.9023   -0.4137 C.3       1 <0>         0.1171
     14 C10        -3.4155   -6.3991   -0.5261 C.3       1 <0>        -0.1324
     15 C11        -4.7311   -7.1729   -0.6325 C.3       1 <0>        -0.1447
     16 C12        -4.4347   -8.6697   -0.7449 C.3       1 <0>        -0.0051
     17 N3         -5.6978   -9.4127   -0.8470 N.4       1 <0>        -0.3951
     18 C13        -6.3547   -9.1297   -2.1487 C.3       1 <0>        -0.0079
     19 C14        -7.2959  -10.3451   -2.3425 C.3       1 <0>        -0.1463
     20 C15        -6.4641  -11.5199   -1.7786 C.3       1 <0>        -0.1459
     21 C16        -5.4357  -10.8683   -0.8356 C.3       1 <0>        -0.0085
     22 N4          3.5843    2.1332   -0.0453 N.pl3     1 <0>        -0.3335
     23 C17         3.8566    3.2665    0.6300 C.2       1 <0>         0.2625
     24 N5          5.0855    3.6192    0.3507 N.2       1 <0>        -0.5331
     25 C18         5.6270    2.7421   -0.4937 C.2       1 <0>         0.2125
     26 N6          4.7490    1.8106   -0.7609 N.2       1 <0>        -0.3148
     27 H1          0.9731   -1.3553   -1.3557 H         1 <0>         0.1444
     28 H2          3.0866   -0.0967   -1.3769 H         1 <0>         0.1457
     29 H3          1.4086    2.7690    1.3168 H         1 <0>         0.1420
     30 H4         -0.7043    1.5094    1.3418 H         1 <0>         0.1439
     31 H5         -2.0426   -0.2496    0.0983 H         1 <0>         0.4262
     32 H6         -1.6072   -4.6375   -0.3230 H         1 <0>         0.4165
     33 H7         -4.3152   -4.7171    0.4750 H         1 <0>         0.0790
     34 H8         -4.2570   -4.5724   -1.2981 H         1 <0>         0.0788
     35 H9         -2.8122   -6.5843   -1.4148 H         1 <0>         0.0851
     36 H10        -2.8704   -6.7290    0.3583 H         1 <0>         0.0855
     37 H11        -5.3344   -6.9878    0.2562 H         1 <0>         0.0919
     38 H12        -5.2762   -6.8431   -1.5169 H         1 <0>         0.0913
     39 H13        -3.8314   -8.8549   -1.6336 H         1 <0>         0.1306
     40 H14        -3.8896   -8.9996    0.1396 H         1 <0>         0.1313
     41 H15        -6.9276   -8.2038   -2.0973 H         1 <0>         0.1354
     42 H16        -5.6170   -9.0829   -2.9498 H         1 <0>         0.1339
     43 H17        -8.2159  -10.2152   -1.7725 H         1 <0>         0.0982
     44 H18        -7.5142  -10.4993   -3.3993 H         1 <0>         0.1167
     45 H19        -7.1050  -12.2052   -1.2239 H         1 <0>         0.1053
     46 H20        -5.9562  -12.0461   -2.5868 H         1 <0>         0.1038
     47 H21        -4.4255  -11.0665   -1.1940 H         1 <0>         0.1306
     48 H22        -5.5577  -11.2597    0.1743 H         1 <0>         0.1322
     49 H23         3.1793    3.7922    1.2867 H         1 <0>         0.2242
     50 H24         6.6307    2.7900   -0.8896 H         1 <0>         0.2258
     51 H25        -6.3110   -9.1637   -0.0853 H         1 <0>         0.4271
@<TRIPOS>BOND
     1    1    6 ar
     2    1    2 ar
     3    1   27 1
     4    2    3 ar
     5    2   28 1
     6    3    4 ar
     7    3   22 1
     8    4    5 ar
     9    4   29 1
    10    5    6 ar
    11    5   30 1
    12    6    7 1
    13    7    8 am
    14    7   31 1
    15    8    9 2
    16    8   10 1
    17   10   11 2
    18   10   12 am
    19   12   13 1
    20   12   32 1
    21   13   14 1
    22   13   33 1
    23   13   34 1
    24   14   15 1
    25   14   35 1
    26   14   36 1
    27   15   16 1
    28   15   37 1
    29   15   38 1
    30   16   17 1
    31   16   39 1
    32   16   40 1
    33   17   21 1
    34   17   18 1
    35   17   51 1
    36   18   19 1
    37   18   41 1
    38   18   42 1
    39   19   20 1
    40   19   43 1
    41   19   44 1
    42   20   21 1
    43   20   45 1
    44   20   46 1
    45   21   47 1
    46   21   48 1
    47   22   26 1
    48   22   23 1
    49   23   24 2
    50   23   49 1
    51   24   25 1
    52   25   26 2
    53   25   50 1
