@<TRIPOS>MOLECULE
ZINC39631870
   80    82     0     0     0
SMALL
USER_CHARGES

@<TRIPOS>ATOM
      1 C1          1.2104   -1.1787    2.4092 C.3       1 <0>        -0.0717
      2 C2          0.6486   -1.6652    1.0983 C.2       1 <0>         0.0238
      3 C3          0.3415   -2.9891    0.7759 C.2       1 <0>        -0.1931
      4 C4         -0.1417   -2.9481   -0.5204 C.2       1 <0>        -0.0483
      5 N1         -0.1017   -1.6370   -0.9015 N.pl3     1 <0>        -0.2378
      6 N2          0.3566   -0.9216    0.0618 N.2       1 <0>        -0.2590
      7 C5         -0.5226   -1.1243   -2.2078 C.3       1 <0>         0.1742
      8 C6         -1.9637   -1.5568   -2.4852 C.3       1 <0>        -0.1718
      9 C7         -0.4398    0.4034   -2.2068 C.3       1 <0>        -0.1476
     10 C8          0.3963   -1.6842   -3.2955 C.3       1 <0>        -0.1647
     11 C9         -0.6050   -4.0887   -1.3268 C.2       1 <0>         0.6180
     12 O1         -0.8692   -3.9338   -2.5039 O.2       1 <0>        -0.5160
     13 N3         -0.7365   -5.3048   -0.7609 N.am      1 <0>        -0.6094
     14 C10        -0.5936   -5.6609    0.6704 C.3       1 <0>         0.0952
     15 C11        -1.7093   -6.6983    0.9279 C.3       1 <0>        -0.1150
     16 H1         -2.5977   -6.2090    1.3274 H         1 <0>         0.1134
     17 C12        -2.0075   -7.3048   -0.4535 C.3       1 <0>        -0.0724
     18 C13        -1.0631   -6.5874   -1.4291 C.3       1 <0>         0.1122
     19 C14        -1.7219   -8.8034   -0.4456 C.3       1 <0>        -0.1473
     20 C15        -2.0810   -9.3940   -1.8120 C.3       1 <0>        -0.0079
     21 N4         -3.4998   -9.1477   -2.0962 N.4       1 <0>        -0.5045
     22 C16        -3.7475   -7.7041   -2.1940 C.3       1 <0>        -0.0112
     23 C17        -3.4590   -7.0421   -0.8436 C.3       1 <0>        -0.1347
     24 C18        -1.2262   -7.7635    1.8781 C.2       1 <0>         0.5215
     25 O2         -0.0430   -8.0197    1.9510 O.2       1 <0>        -0.5197
     26 N5         -2.1090   -8.4316    2.6468 N.am      1 <0>        -0.7200
     27 C19        -1.6312   -9.3843    3.6518 C.3       1 <0>         0.1408
     28 H2         -0.6964   -9.0224    4.0801 H         1 <0>         0.0922
     29 C20        -1.3973  -10.7456    2.9936 C.3       1 <0>        -0.1640
     30 C21        -2.6781   -9.5261    4.7585 C.3       1 <0>        -0.1303
     31 C22        -2.8213   -8.1948    5.4987 C.3       1 <0>        -0.1182
     32 C23        -3.8682   -8.3366    6.6054 C.3       1 <0>        -0.1056
     33 C24        -4.0114   -7.0052    7.3456 C.3       1 <0>         0.1259
     34 C25        -4.9645   -7.1799    8.5296 C.3       1 <0>        -0.1823
     35 C26        -2.6409   -6.5555    7.8561 C.3       1 <0>        -0.1831
     36 O3         -4.5348   -6.0185    6.4542 O.3       1 <0>        -0.5642
     37 H3          0.3923   -0.9323    3.0861 H         1 <0>         0.0757
     38 H4          1.8263   -1.9607    2.8532 H         1 <0>         0.0774
     39 H5          1.8190   -0.2910    2.2366 H         1 <0>         0.0753
     40 H6          0.4569   -3.8597    1.4045 H         1 <0>         0.1657
     41 H7         -2.6405   -1.0059   -1.8321 H         1 <0>         0.0558
     42 H8         -2.2120   -1.3472   -3.5257 H         1 <0>         0.0803
     43 H9         -2.0653   -2.6254   -2.2956 H         1 <0>         0.0918
     44 H10         0.5869    0.7115   -2.0092 H         1 <0>         0.0717
     45 H11        -0.7529    0.7849   -3.1787 H         1 <0>         0.0787
     46 H12        -1.0944    0.8023   -1.4319 H         1 <0>         0.0684
     47 H13         0.4850   -2.7640   -3.1759 H         1 <0>         0.0872
     48 H14        -0.0235   -1.4606   -4.2763 H         1 <0>         0.0801
     49 H15         1.3820   -1.2269   -3.2093 H         1 <0>         0.0584
     50 H16         0.3857   -6.1019    0.8564 H         1 <0>         0.1047
     51 H17        -0.7405   -4.7813    1.2972 H         1 <0>         0.1084
     52 H18        -1.5659   -6.4045   -2.3788 H         1 <0>         0.0922
     53 H19        -0.1594   -7.1770   -1.5834 H         1 <0>         0.0874
     54 H20        -0.6640   -8.9711   -0.2434 H         1 <0>         0.1262
     55 H21        -2.3214   -9.2840    0.3275 H         1 <0>         0.0988
     56 H22        -1.4696   -8.9244   -2.5826 H         1 <0>         0.1333
     57 H23        -1.8933  -10.4677   -1.8042 H         1 <0>         0.1393
     58 H24        -3.7486   -9.5901   -2.9682 H         1 <0>         0.4343
     59 H25        -3.0964   -7.2747   -2.9554 H         1 <0>         0.1343
     60 H26        -4.7885   -7.5321   -2.4677 H         1 <0>         0.1398
     61 H27        -4.1210   -7.4595   -0.0849 H         1 <0>         0.0969
     62 H28        -3.6261   -5.9678   -0.9219 H         1 <0>         0.1182
     63 H29        -3.0607   -8.2816    2.5345 H         1 <0>         0.3987
     64 H30        -0.6514  -10.6446    2.2052 H         1 <0>         0.0606
     65 H31        -1.0417  -11.4545    3.7414 H         1 <0>         0.0714
     66 H32        -2.3320  -11.1075    2.5653 H         1 <0>         0.0537
     67 H33        -3.6364   -9.8023    4.3188 H         1 <0>         0.0674
     68 H34        -2.3635  -10.2994    5.4593 H         1 <0>         0.0825
     69 H35        -1.8629   -7.9186    5.9384 H         1 <0>         0.0670
     70 H36        -3.1358   -7.4215    4.7979 H         1 <0>         0.0690
     71 H37        -4.8265   -8.6127    6.1657 H         1 <0>         0.0685
     72 H38        -3.5536   -9.1099    7.3062 H         1 <0>         0.0760
     73 H39        -4.5653   -7.9325    9.2095 H         1 <0>         0.0670
     74 H40        -5.0666   -6.2314    9.0569 H         1 <0>         0.0602
     75 H41        -5.9408   -7.5002    8.1658 H         1 <0>         0.0634
     76 H42        -1.9619   -6.4311    7.0126 H         1 <0>         0.0660
     77 H43        -2.7430   -5.6071    8.3834 H         1 <0>         0.0586
     78 H44        -2.2417   -7.3081    8.5361 H         1 <0>         0.0667
     79 H45        -4.6522   -5.1473    6.8570 H         1 <0>         0.3779
     80 H46        -4.0624   -9.5346   -1.3533 H         1 <0>         0.4277
@<TRIPOS>BOND
     1    1    2 1
     2    1   37 1
     3    1   38 1
     4    1   39 1
     5    2    6 2
     6    2    3 1
     7    3    4 2
     8    3   40 1
     9    4    5 1
    10    4   11 1
    11    5    6 1
    12    5    7 1
    13    7    8 1
    14    7    9 1
    15    7   10 1
    16    8   41 1
    17    8   42 1
    18    8   43 1
    19    9   44 1
    20    9   45 1
    21    9   46 1
    22   10   47 1
    23   10   48 1
    24   10   49 1
    25   11   12 2
    26   11   13 am
    27   13   18 1
    28   13   14 1
    29   14   15 1
    30   14   50 1
    31   14   51 1
    32   15   16 1
    33   15   17 1
    34   15   24 1
    35   17   23 1
    36   17   18 1
    37   17   19 1
    38   18   52 1
    39   18   53 1
    40   19   20 1
    41   19   54 1
    42   19   55 1
    43   20   21 1
    44   20   56 1
    45   20   57 1
    46   21   22 1
    47   21   58 1
    48   21   80 1
    49   22   23 1
    50   22   59 1
    51   22   60 1
    52   23   61 1
    53   23   62 1
    54   24   25 2
    55   24   26 am
    56   26   27 1
    57   26   63 1
    58   27   28 1
    59   27   29 1
    60   27   30 1
    61   29   64 1
    62   29   65 1
    63   29   66 1
    64   30   31 1
    65   30   67 1
    66   30   68 1
    67   31   32 1
    68   31   69 1
    69   31   70 1
    70   32   33 1
    71   32   71 1
    72   32   72 1
    73   33   34 1
    74   33   35 1
    75   33   36 1
    76   34   73 1
    77   34   74 1
    78   34   75 1
    79   35   76 1
    80   35   77 1
    81   35   78 1
    82   36   79 1
