@<TRIPOS>MOLECULE
ZINC12316368
   58    61     0     0     0
SMALL
USER_CHARGES
N-[(2-methylimidazo[2,1-b]thiazol-6-yl)methyl]-4-[5-[(4-methyl-1-piperidyl)methyl]tetrazol-1-yl]butanamide
@<TRIPOS>ATOM
      1 C1         -1.2980   -3.5780   -0.0029 C.3       1 <0>        -0.0680
      2 C2         -0.4838   -2.3099   -0.0050 C.2       1 <0>        -0.1312
      3 C3         -0.9009   -1.0448    0.0054 C.2       1 <0>         0.0089
      4 N1          0.0021   -0.0041    0.0020 N.pl3     1 <0>        -0.4290
      5 C4         -0.0168    1.3881    0.0097 C.2       1 <0>        -0.0165
      6 C5          1.2570    1.8143   -0.0002 C.2       1 <0>         0.0101
      7 N2          2.0626    0.7411   -0.0131 N.2       1 <0>        -0.4317
      8 C6          1.3311   -0.3358   -0.0125 C.2       1 <0>         0.1773
      9 S1          1.2913   -2.1128   -0.0211 S.3       1 <0>         0.1372
     10 C7          1.7053    3.2530    0.0029 C.3       1 <0>         0.2088
     11 N3          1.9785    3.6764    1.3785 N.am      1 <0>        -0.7208
     12 C8          2.3955    4.9339    1.6264 C.2       1 <0>         0.5128
     13 O1          2.5445    5.7149    0.7106 O.2       1 <0>        -0.5351
     14 C9          2.6765    5.3694    3.0414 C.3       1 <0>        -0.1381
     15 C10         3.1316    6.8301    3.0446 C.3       1 <0>        -0.1263
     16 C11         3.4170    7.2723    4.4813 C.3       1 <0>         0.0993
     17 N4          3.8527    8.6710    4.4843 N.pl3     1 <0>        -0.2835
     18 C12         3.0616    9.7546    4.5917 C.2       1 <0>         0.1031
     19 N5          3.8496   10.8012    4.5510 N.2       1 <0>        -0.2565
     20 N6          5.0615   10.3823    4.4251 N.2       1 <0>        -0.0496
     21 N7          5.0675    9.0954    4.3901 N.2       1 <0>        -0.0456
     22 C13         1.5612    9.7629    4.7324 C.3       1 <0>         0.0936
     23 C14         2.0094   10.6763    6.9290 C.3       1 <0>        -0.0049
     24 C15         1.7138   10.5053    8.4208 C.3       1 <0>        -0.1414
     25 C16         0.2231   10.7485    8.6719 C.3       1 <0>        -0.1047
     26 C17        -0.5955    9.7754    7.8190 C.3       1 <0>        -0.1435
     27 C18        -0.2330    9.9676    6.3447 C.3       1 <0>        -0.0006
     28 C19        -0.0902   10.5194   10.1519 C.3       1 <0>        -0.1541
     29 H1         -1.5049   -3.8787   -1.0299 H         1 <0>         0.0913
     30 H2         -0.7403   -4.3671    0.5015 H         1 <0>         0.0871
     31 H3         -2.2379   -3.4054    0.5214 H         1 <0>         0.0905
     32 H4         -1.9597   -0.8323    0.0163 H         1 <0>         0.1752
     33 H5         -0.8975    2.0132    0.0174 H         1 <0>         0.1842
     34 H6          2.6115    3.3526   -0.5946 H         1 <0>         0.0907
     35 H7          0.9201    3.8792   -0.4208 H         1 <0>         0.0898
     36 H8          1.8593    3.0518    2.1110 H         1 <0>         0.4044
     37 H9          1.7704    5.2699    3.6390 H         1 <0>         0.1005
     38 H10         3.4617    4.7433    3.4651 H         1 <0>         0.1076
     39 H11         4.0378    6.9297    2.4471 H         1 <0>         0.0979
     40 H12         2.3464    7.4563    2.6209 H         1 <0>         0.0848
     41 H13         2.5108    7.1728    5.0788 H         1 <0>         0.1063
     42 H14         4.2022    6.6462    4.9050 H         1 <0>         0.1330
     43 H15         1.1590   10.6702    4.2817 H         1 <0>         0.1737
     44 H16         1.1442    8.8911    4.2283 H         1 <0>         0.1543
     45 H17         3.0674   10.4898    6.7447 H         1 <0>         0.1195
     46 H18         1.7615   11.6930    6.6239 H         1 <0>         0.1421
     47 H19         2.3011   11.2236    8.9929 H         1 <0>         0.1151
     48 H20         1.9745    9.4930    8.7297 H         1 <0>         0.0859
     49 H21        -0.0306   11.7732    8.4003 H         1 <0>         0.0919
     50 H22        -1.6582    9.9722    7.9611 H         1 <0>         0.1171
     51 H23        -0.3712    8.7516    8.1184 H         1 <0>         0.0885
     52 H24        -0.4704   10.9875    6.0423 H         1 <0>         0.1384
     53 H25        -0.8037    9.2663    5.7359 H         1 <0>         0.1342
     54 H26         0.1659    9.4952   10.4231 H         1 <0>         0.0614
     55 H27         0.4930   11.2125   10.7582 H         1 <0>         0.0683
     56 H28        -1.1526   10.6872   10.3286 H         1 <0>         0.0685
     57 N8          1.2092    9.6953    6.1657 N.4       1 <0>        -0.3952
     58 H29         1.4160    8.7525    6.5157 H         1 <0>         0.4230
@<TRIPOS>BOND
     1    1    2 1
     2    1   29 1
     3    1   30 1
     4    1   31 1
     5    2    9 1
     6    2    3 2
     7    3    4 1
     8    3   32 1
     9    4    8 1
    10    4    5 1
    11    5    6 2
    12    5   33 1
    13    6    7 1
    14    6   10 1
    15    7    8 2
    16    8    9 1
    17   10   11 1
    18   10   34 1
    19   10   35 1
    20   11   12 am
    21   11   36 1
    22   12   13 2
    23   12   14 1
    24   14   15 1
    25   14   37 1
    26   14   38 1
    27   15   16 1
    28   15   39 1
    29   15   40 1
    30   16   17 1
    31   16   41 1
    32   16   42 1
    33   17   21 1
    34   17   18 1
    35   18   19 2
    36   18   22 1
    37   19   20 1
    38   20   21 2
    39   22   43 1
    40   22   44 1
    41   22   57 1
    42   23   24 1
    43   23   45 1
    44   23   46 1
    45   23   57 1
    46   24   25 1
    47   24   47 1
    48   24   48 1
    49   25   26 1
    50   25   28 1
    51   25   49 1
    52   26   27 1
    53   26   50 1
    54   26   51 1
    55   27   52 1
    56   27   53 1
    57   27   57 1
    58   28   54 1
    59   28   55 1
    60   28   56 1
    61   57   58 1
