@<TRIPOS>MOLECULE
ZINC64392277
   58    61     0     0     0
SMALL
USER_CHARGES

@<TRIPOS>ATOM
      1 C1         -0.3238    1.7352   -0.0403 C.3       1 <0>        -0.1480
      2 C2         -0.2999    0.2055   -0.0247 C.3       1 <0>        -0.0895
      3 C3          0.4120   -0.2983   -1.2537 C.ar      1 <0>        -0.0682
      4 C4         -0.3036   -0.5455   -2.4116 C.ar      1 <0>        -0.1170
      5 C5          0.3427   -1.0065   -3.5402 C.ar      1 <0>        -0.0950
      6 C6          1.7200   -1.2231   -3.5121 C.ar      1 <0>        -0.0493
      7 C7          2.4359   -0.9720   -2.3421 C.ar      1 <0>        -0.0863
      8 C8          1.7793   -0.5062   -1.2213 C.ar      1 <0>        -0.1153
      9 C9          2.4196   -1.7182   -4.7201 C.2       1 <0>         0.2044
     10 C10         3.7469   -1.9688   -4.8077 C.2       1 <0>        -0.2219
     11 C11         3.9394   -2.4600   -6.2168 C.3       1 <0>        -0.0053
     12 H1          3.8631   -3.5461   -6.2700 H         1 <0>         0.1194
     13 C12         5.1579   -1.9678   -6.9363 C.2       1 <0>         0.4686
     14 O1          6.1846   -1.7142   -6.3521 O.2       1 <0>        -0.3773
     15 N1          5.0442   -1.8230   -8.2814 N.2       1 <0>        -0.1921
     16 N2          3.9856   -1.9657   -8.8978 N.2       1 <0>        -0.0239
     17 C13         2.7004   -2.2723   -8.2441 C.3       1 <0>         0.1268
     18 H2          1.8869   -1.7739   -8.7713 H         1 <0>         0.1641
     19 N3          2.7734   -1.7942   -6.8831 N.3       1 <0>        -0.2588
     20 N4          1.8035   -2.0089   -5.9607 N.pl3     1 <0>        -0.5981
     21 S1          2.4237   -4.0650   -8.2334 S.3       1 <0>        -0.1603
     22 C14         1.9534   -4.4467   -9.9433 C.3       1 <0>        -0.1274
     23 C15         1.5735   -5.9013  -10.0470 C.2       1 <0>         0.5307
     24 O2          1.6158   -6.6108   -9.0641 O.2       1 <0>        -0.4978
     25 N5          1.1867   -6.4139  -11.2320 N.am      1 <0>        -0.6489
     26 C16         0.7236   -7.7362  -11.3067 C.ar      1 <0>         0.0934
     27 C17         0.2763   -8.3809  -10.1627 C.ar      1 <0>        -0.0562
     28 C18        -0.1794   -9.6839  -10.2363 C.ar      1 <0>        -0.0835
     29 C19        -0.1909  -10.3494  -11.4546 C.ar      1 <0>         0.1636
     30 C20         0.2549   -9.7084  -12.6003 C.ar      1 <0>        -0.2677
     31 C21         0.7072   -8.4009  -12.5304 C.ar      1 <0>         0.1468
     32 O3          1.1399   -7.7691  -13.6541 O.3       1 <0>        -0.3134
     33 C22         1.0947   -8.5118  -14.8741 C.3       1 <0>         0.0264
     34 O4         -0.6393  -11.6313  -11.5242 O.3       1 <0>        -0.2992
     35 C23        -0.6232  -12.2553  -12.8097 C.3       1 <0>         0.0237
     36 Cl1        -0.7377  -10.4893   -8.8033 Cl        1 <0>        -0.0462
     37 H3          0.6980    2.1145   -0.0495 H         1 <0>         0.0569
     38 H4         -0.8478    2.0813   -0.9312 H         1 <0>         0.0559
     39 H5         -0.8387    2.0996    0.8486 H         1 <0>         0.0601
     40 H6          0.2242   -0.1406    0.8662 H         1 <0>         0.0746
     41 H7         -1.3217   -0.1738   -0.0156 H         1 <0>         0.0738
     42 H8         -1.3703   -0.3778   -2.4320 H         1 <0>         0.1259
     43 H9         -0.2170   -1.1995   -4.4435 H         1 <0>         0.1212
     44 H10         3.5027   -1.1379   -2.3143 H         1 <0>         0.1307
     45 H11         2.3332   -0.3076   -0.3157 H         1 <0>         0.1287
     46 H12         4.4972   -1.8440   -4.0409 H         1 <0>         0.1679
     47 H13         0.8899   -2.2962   -6.1152 H         1 <0>         0.4331
     48 H14         1.1043   -3.8278  -10.2334 H         1 <0>         0.1259
     49 H15         2.7947   -4.2428  -10.6057 H         1 <0>         0.1297
     50 H16         1.2284   -5.8687  -12.0331 H         1 <0>         0.4202
     51 H17         0.2845   -7.8647   -9.2141 H         1 <0>         0.1779
     52 H18         0.2460  -10.2270  -13.5477 H         1 <0>         0.1492
     53 H19         1.7167   -9.4020  -14.7808 H         1 <0>         0.0591
     54 H20         0.0663   -8.8071  -15.0818 H         1 <0>         0.0590
     55 H21         1.4668   -7.8926  -15.6904 H         1 <0>         0.1071
     56 H22        -1.0053  -13.2726  -12.7245 H         1 <0>         0.1067
     57 H23        -1.2507  -11.6878  -13.4969 H         1 <0>         0.0576
     58 H24         0.3987  -12.2815  -13.1881 H         1 <0>         0.0576
@<TRIPOS>BOND
     1    1    2 1
     2    1   37 1
     3    1   38 1
     4    1   39 1
     5    2    3 1
     6    2   40 1
     7    2   41 1
     8    3    8 ar
     9    3    4 ar
    10    4    5 ar
    11    4   42 1
    12    5    6 ar
    13    5   43 1
    14    6    7 ar
    15    6    9 1
    16    7    8 ar
    17    7   44 1
    18    8   45 1
    19    9   20 1
    20    9   10 2
    21   10   11 1
    22   10   46 1
    23   11   12 1
    24   11   19 1
    25   11   13 1
    26   13   14 2
    27   13   15 1
    28   15   16 2
    29   16   17 1
    30   17   18 1
    31   17   19 1
    32   17   21 1
    33   19   20 1
    34   20   47 1
    35   21   22 1
    36   22   23 1
    37   22   48 1
    38   22   49 1
    39   23   24 2
    40   23   25 am
    41   25   26 1
    42   25   50 1
    43   26   31 ar
    44   26   27 ar
    45   27   28 ar
    46   27   51 1
    47   28   29 ar
    48   28   36 1
    49   29   30 ar
    50   29   34 1
    51   30   31 ar
    52   30   52 1
    53   31   32 1
    54   32   33 1
    55   33   53 1
    56   33   54 1
    57   33   55 1
    58   34   35 1
    59   35   56 1
    60   35   57 1
    61   35   58 1
