@<TRIPOS>MOLECULE
ZINC21129515
   51    54     0     0     0
SMALL
USER_CHARGES
N-(2-nitrophenyl)-2-[4-oxo-3-[[(2R)-tetrahydrofuran-2-yl]methyl]quinazolin-2-yl]sulfanyl-acetamide
@<TRIPOS>ATOM
      1 C1          2.3978    1.4086   -0.1608 C.ar      1 <0>        -0.1431
      2 C2          2.4154    0.0197   -0.1599 C.ar      1 <0>        -0.0678
      3 C3          1.2532   -0.6982   -0.1317 C.ar      1 <0>        -0.1156
      4 C4          0.0265   -0.0280   -0.1028 C.ar      1 <0>         0.1739
      5 C5          0.0127    1.3855   -0.1033 C.ar      1 <0>        -0.2052
      6 C6          1.2139    2.0926   -0.1329 C.ar      1 <0>        -0.0372
      7 C7         -1.2884    2.0667   -0.0659 C.2       1 <0>         0.5549
      8 O1         -1.3655    3.2816   -0.0641 O.2       1 <0>        -0.5076
      9 N1         -2.3986    1.2928   -0.0447 N.am      1 <0>        -0.5225
     10 C8         -2.2932   -0.0689   -0.0464 C.2       1 <0>         0.3673
     11 N2         -1.1436   -0.6969   -0.0739 N.2       1 <0>        -0.5394
     12 S1         -3.7723   -1.0258   -0.0105 S.3       1 <0>         0.1125
     13 C9         -3.0685   -2.6932   -0.0270 C.3       1 <0>        -0.1619
     14 C10        -4.1816   -3.7087    0.0001 C.2       1 <0>         0.5431
     15 O2         -5.3372   -3.3412    0.0279 O.2       1 <0>        -0.5064
     16 N3         -3.8932   -5.0252   -0.0065 N.am      1 <0>        -0.6768
     17 C11        -4.9210   -5.9672    0.1118 C.ar      1 <0>         0.2269
     18 C12        -6.1597   -5.7220   -0.4667 C.ar      1 <0>        -0.1304
     19 C13        -7.1707   -6.6556   -0.3519 C.ar      1 <0>        -0.0440
     20 C14        -6.9539   -7.8294    0.3467 C.ar      1 <0>        -0.1338
     21 C15        -5.7235   -8.0744    0.9278 C.ar      1 <0>        -0.0372
     22 C16        -4.7066   -7.1466    0.8125 C.ar      1 <0>        -0.0770
     23 N4         -3.3896   -7.4097    1.4348 N.pl3     1 <0>         0.0394
     24 O3         -3.1696   -8.4849    1.9630 O.2       1 <0>        -0.1461
     25 O4         -2.5260   -6.5509    1.4186 O.3       1 <0>        -0.1809
     26 C17        -3.7221    1.9200   -0.0134 C.3       1 <0>         0.0845
     27 C18        -4.1484    2.1392    1.4396 C.3       1 <0>         0.0585
     28 H1         -3.3829    2.7545    1.9350 H         1 <0>         0.0799
     29 C19        -5.5768    2.7368    1.4967 C.3       1 <0>        -0.1454
     30 C20        -6.0322    2.2779    2.9088 C.3       1 <0>        -0.1511
     31 C21        -5.3383    0.9057    3.0470 C.3       1 <0>         0.0545
     32 O5         -4.2403    0.8814    2.1274 O.3       1 <0>        -0.3664
     33 H2          3.3295    1.9544   -0.1834 H         1 <0>         0.1328
     34 H3          3.3616   -0.5005   -0.1822 H         1 <0>         0.1343
     35 H4          1.2820   -1.7778   -0.1314 H         1 <0>         0.1393
     36 H5          1.2095    3.1726   -0.1334 H         1 <0>         0.1365
     37 H6         -2.4700   -2.8295   -0.9398 H         1 <0>         0.1359
     38 H7         -2.4267   -2.8291    0.8560 H         1 <0>         0.1415
     39 H8         -2.8498   -5.3592   -0.1049 H         1 <0>         0.4552
     40 H9         -6.3310   -4.8036   -1.0085 H         1 <0>         0.1621
     41 H10        -8.1330   -6.4670   -0.8043 H         1 <0>         0.1481
     42 H11        -7.7476   -8.5560    0.4389 H         1 <0>         0.1502
     43 H12        -5.5573   -8.9919    1.4726 H         1 <0>         0.1581
     44 H13        -3.6813    2.8883   -0.5336 H         1 <0>         0.1206
     45 H14        -4.4502    1.2651   -0.5143 H         1 <0>         0.1043
     46 H15        -5.5216    3.8299    1.3863 H         1 <0>         0.0880
     47 H16        -6.1832    2.3161    0.6810 H         1 <0>         0.0852
     48 H17        -5.6928    3.0076    3.6587 H         1 <0>         0.0782
     49 H18        -7.1297    2.2082    2.9355 H         1 <0>         0.0861
     50 H19        -4.9776    0.7795    4.0785 H         1 <0>         0.0691
     51 H20        -6.0556    0.1064    2.8091 H         1 <0>         0.0752
@<TRIPOS>BOND
     1    1    6 ar
     2    1    2 ar
     3    1   33 1
     4    2    3 ar
     5    2   34 1
     6    3    4 ar
     7    3   35 1
     8    4   11 1
     9    4    5 ar
    10    5    6 ar
    11    5    7 1
    12    6   36 1
    13    7    8 2
    14    7    9 am
    15    9   10 1
    16    9   26 1
    17   10   11 2
    18   10   12 1
    19   12   13 1
    20   13   14 1
    21   13   37 1
    22   13   38 1
    23   14   15 2
    24   14   16 am
    25   16   17 1
    26   16   39 1
    27   17   22 ar
    28   17   18 ar
    29   18   19 ar
    30   18   40 1
    31   19   20 ar
    32   19   41 1
    33   20   21 ar
    34   20   42 1
    35   21   22 ar
    36   21   43 1
    37   22   23 1
    38   23   24 2
    39   23   25 1
    40   26   27 1
    41   26   44 1
    42   26   45 1
    43   27   28 1
    44   27   32 1
    45   27   29 1
    46   29   30 1
    47   29   46 1
    48   29   47 1
    49   30   31 1
    50   30   48 1
    51   30   49 1
    52   31   32 1
    53   31   50 1
    54   31   51 1
