@<TRIPOS>MOLECULE
ZINC28915585
   41    42     0     0     0
SMALL
USER_CHARGES
2-[(2S)-2-hydroxy-3-(3-nitrophenoxy)propyl]-5,6-dimethyl-3-oxo-pyridazine-4-carbonitrile
@<TRIPOS>ATOM
      1 C1          4.1590   -0.3998   -4.5938 C.3       1 <0>        -0.1405
      2 C2          3.4184    0.1866   -3.4196 C.2       1 <0>         0.0358
      3 C3          3.3810   -0.4750   -2.1868 C.2       1 <0>         0.0639
      4 N1          2.7413    0.0288   -1.1693 N.2       1 <0>        -0.2049
      5 N2          2.1084    1.1429   -1.2082 N.am      1 <0>        -0.3359
      6 C4          2.0521    1.8891   -2.3297 C.2       1 <0>         0.5102
      7 O1          1.4405    2.9436   -2.3473 O.2       1 <0>        -0.4878
      8 C5          2.7490    1.4047   -3.5280 C.2       1 <0>        -0.1128
      9 C6          2.7370    2.1466   -4.7528 C.1       1 <0>         0.2701
     10 N3          2.7276    2.7351   -5.7244 N.1       1 <0>        -0.3883
     11 C7          1.4227    1.6154   -0.0028 C.3       1 <0>         0.1221
     12 C8         -0.0127    1.0858    0.0080 C.3       1 <0>         0.1065
     13 H1         -0.0334   -0.0120   -0.0582 H         1 <0>         0.0760
     14 C9         -0.7288    1.5792    1.2668 C.3       1 <0>         0.0250
     15 O2         -2.0295    0.9914    1.3363 O.3       1 <0>        -0.3041
     16 C10        -2.8025    1.3279    2.4021 C.ar      1 <0>         0.1377
     17 C11        -2.3191    2.2059    3.3616 C.ar      1 <0>        -0.1583
     18 C12        -3.1070    2.5467    4.4437 C.ar      1 <0>        -0.0736
     19 C13        -4.3767    2.0139    4.5711 C.ar      1 <0>        -0.0916
     20 C14        -4.8606    1.1388    3.6165 C.ar      1 <0>        -0.0037
     21 C15        -4.0783    0.7985    2.5297 C.ar      1 <0>        -0.0916
     22 N4         -6.2200    0.5704    3.7559 N.pl3     1 <0>         0.0247
     23 O3         -6.9119    0.8737    4.7114 O.2       1 <0>        -0.1493
     24 O4         -6.6469   -0.2006    2.9152 O.3       1 <0>        -0.1509
     25 O5         -0.7038    1.5592   -1.1497 O.3       1 <0>        -0.5801
     26 C16         4.0940   -1.7938   -2.0330 C.3       1 <0>        -0.0943
     27 H2          4.6138   -1.3572   -4.2994 H         1 <0>         0.0953
     28 H3          4.9471    0.2970   -4.9153 H         1 <0>         0.0935
     29 H4          3.4567   -0.5673   -5.4237 H         1 <0>         0.0935
     30 H5          1.9547    1.2510    0.8883 H         1 <0>         0.1247
     31 H6          1.4078    2.7153    0.0033 H         1 <0>         0.1199
     32 H7         -0.1483    1.2911    2.1556 H         1 <0>         0.0810
     33 H8         -0.8229    2.6745    1.2296 H         1 <0>         0.0844
     34 H9         -1.3278    2.6229    3.2621 H         1 <0>         0.1481
     35 H10        -2.7312    3.2301    5.1908 H         1 <0>         0.1535
     36 H11        -4.9914    2.2822    5.4176 H         1 <0>         0.1574
     37 H12        -4.4584    0.1181    1.7821 H         1 <0>         0.1622
     38 H13        -1.7548    1.2801   -1.3153 H         1 <0>         0.4189
     39 H14         3.9592   -2.1660   -1.0067 H         1 <0>         0.0865
     40 H15         5.1665   -1.6566   -2.2354 H         1 <0>         0.0885
     41 H16         3.6767   -2.5214   -2.7447 H         1 <0>         0.0883
@<TRIPOS>BOND
     1    1    2 1
     2    1   27 1
     3    1   28 1
     4    1   29 1
     5    2    8 2
     6    2    3 1
     7    3    4 2
     8    3   26 1
     9    4    5 1
    10    5    6 am
    11    5   11 1
    12    6    7 2
    13    6    8 1
    14    8    9 1
    15    9   10 3
    16   11   12 1
    17   11   30 1
    18   11   31 1
    19   12   13 1
    20   12   14 1
    21   12   25 1
    22   14   15 1
    23   14   32 1
    24   14   33 1
    25   15   16 1
    26   16   21 ar
    27   16   17 ar
    28   17   18 ar
    29   17   34 1
    30   18   19 ar
    31   18   35 1
    32   19   20 ar
    33   19   36 1
    34   20   21 ar
    35   20   22 1
    36   21   37 1
    37   22   23 2
    38   22   24 1
    39   25   38 1
    40   26   39 1
    41   26   40 1
    42   26   41 1
