@<TRIPOS>MOLECULE
ZINC21814409
   33    34     0     0     0
SMALL
USER_CHARGES
2-(3-tert-butyl-1,2,4-oxadiazol-5-yl)-4-nitro-aniline
@<TRIPOS>ATOM
      1 C1          0.4135   -2.7860   -0.0159 C.3       1 <0>        -0.1433
      2 C2          1.6526   -1.8885   -0.0231 C.3       1 <0>         0.0223
      3 C3          2.4770   -2.1674   -1.2815 C.3       1 <0>        -0.1421
      4 C4          2.5003   -2.1796    1.2168 C.3       1 <0>        -0.1421
      5 C5          1.2261   -0.4432   -0.0120 C.2       1 <0>         0.2008
      6 N1          2.0407    0.6231   -0.0141 N.2       1 <0>        -0.4654
      7 C6          1.2433    1.6781   -0.0008 C.2       1 <0>         0.2376
      8 O1         -0.0144    1.2086    0.0087 O.3       1 <0>         0.0533
      9 N2          0.0021   -0.0041    0.0020 N.2       1 <0>        -0.3727
     10 C7          1.6555    3.0946    0.0029 C.ar      1 <0>        -0.1265
     11 C8          3.0106    3.4319   -0.0088 C.ar      1 <0>         0.0574
     12 C9          3.3893    4.7571   -0.0052 C.ar      1 <0>        -0.1151
     13 C10         2.4319    5.7585    0.0099 C.ar      1 <0>         0.0215
     14 C11         1.0887    5.4406    0.0215 C.ar      1 <0>        -0.2016
     15 C12         0.6884    4.1109    0.0123 C.ar      1 <0>         0.3156
     16 N3         -0.6647    3.7882    0.0182 N.pl3     1 <0>        -0.8594
     17 N4          4.8263    5.1123   -0.0181 N.pl3     1 <0>         0.0395
     18 O2          5.6705    4.2345   -0.0318 O.2       1 <0>        -0.1667
     19 O3          5.1644    6.2825   -0.0150 O.3       1 <0>        -0.1661
     20 H1         -0.1792   -2.5855    0.8888 H         1 <0>         0.0623
     21 H2          0.7249   -3.8410   -0.0239 H         1 <0>         0.0734
     22 H3         -0.1960   -2.5767   -0.9074 H         1 <0>         0.0623
     23 H4          3.3679   -1.5221   -1.2867 H         1 <0>         0.0698
     24 H5          1.8675   -1.9582   -2.1730 H         1 <0>         0.0572
     25 H6          2.7883   -3.2224   -1.2895 H         1 <0>         0.0745
     26 H7          3.3912   -1.5343    1.2116 H         1 <0>         0.0698
     27 H8          2.8116   -3.2346    1.2087 H         1 <0>         0.0745
     28 H9          1.9076   -1.9791    2.1215 H         1 <0>         0.0572
     29 H10         3.7609    2.6552   -0.0202 H         1 <0>         0.1667
     30 H11         2.7384    6.7941    0.0129 H         1 <0>         0.1607
     31 H12         0.3484    6.2268    0.0332 H         1 <0>         0.1561
     32 H13        -1.4207    4.5872    0.0256 H         1 <0>         0.4370
     33 H14        -0.9787    2.7340    0.0155 H         1 <0>         0.4315
@<TRIPOS>BOND
     1    1    2 1
     2    1   20 1
     3    1   21 1
     4    1   22 1
     5    2    3 1
     6    2    4 1
     7    2    5 1
     8    3   23 1
     9    3   24 1
    10    3   25 1
    11    4   26 1
    12    4   27 1
    13    4   28 1
    14    5    9 2
    15    5    6 1
    16    6    7 2
    17    7    8 1
    18    7   10 1
    19    8    9 1
    20   10   15 ar
    21   10   11 ar
    22   11   12 ar
    23   11   29 1
    24   12   13 ar
    25   12   17 1
    26   13   14 ar
    27   13   30 1
    28   14   15 ar
    29   14   31 1
    30   15   16 1
    31   16   32 1
    32   16   33 1
    33   17   18 2
    34   17   19 1
