@<TRIPOS>MOLECULE
ZINC54531025
   57    59     0     0     0
SMALL
USER_CHARGES

@<TRIPOS>ATOM
      1 C1         -1.4465    1.6872   -3.8538 C.3       1 <0>        -0.1521
      2 C2         -1.5040    0.1711   -4.0510 C.3       1 <0>         0.0785
      3 O1         -0.3015   -0.4199   -3.5542 O.3       1 <0>        -0.3609
      4 C3         -0.1919   -1.7583   -3.6532 C.2       1 <0>         0.6498
      5 O2         -1.0927   -2.4068   -4.1479 O.2       1 <0>        -0.5552
      6 N1          0.9169   -2.3787   -3.2037 N.am      1 <0>        -0.5545
      7 C4          2.0480   -1.5900   -2.7089 C.3       1 <0>         0.0848
      8 C5          0.9879   -3.7782   -3.2095 C.ar      1 <0>         0.1269
      9 C6          1.0445   -4.4655   -4.4146 C.ar      1 <0>        -0.0770
     10 C7          1.1148   -5.8443   -4.4203 C.ar      1 <0>        -0.1420
     11 C8          1.1290   -6.5437   -3.2209 C.ar      1 <0>         0.1708
     12 C9          1.0724   -5.8564   -2.0157 C.ar      1 <0>        -0.1190
     13 C10         1.0074   -4.4774   -2.0099 C.ar      1 <0>        -0.0926
     14 N2          1.1999   -7.9432   -3.2267 N.am      1 <0>        -0.6837
     15 C11         0.6708   -8.6490   -2.2077 C.2       1 <0>         0.7019
     16 O3          0.2210   -8.0713   -1.2370 O.2       1 <0>        -0.5458
     17 N3          0.6402   -9.9952   -2.2647 N.am      1 <0>        -0.6134
     18 C12         1.3929  -10.6753   -3.3369 C.3       1 <0>         0.1079
     19 C13         2.1370  -11.9212   -2.8231 C.3       1 <0>        -0.1323
     20 C14         2.7444  -11.6412   -1.4707 C.3       1 <0>        -0.1170
     21 C15         1.7592  -12.0493   -0.3796 C.3       1 <0>        -0.1203
     22 C16         0.7646  -11.0185   -0.0448 C.3       1 <0>        -0.1323
     23 C17        -0.1238  -10.7139   -1.2697 C.3       1 <0>         0.2079
     24 H1         -0.4860  -11.6494   -1.6960 H         1 <0>         0.0980
     25 C18        -1.2969   -9.8739   -0.8346 C.ar      1 <0>        -0.0187
     26 C19        -2.2495   -9.4561   -1.7514 C.ar      1 <0>        -0.1669
     27 C20        -3.3117   -8.6867   -1.3156 C.ar      1 <0>         0.1029
     28 N4         -3.4243   -8.3500   -0.0456 N.ar      1 <0>        -0.4869
     29 C21        -2.5376   -8.7293    0.8537 C.ar      1 <0>         0.1011
     30 C22        -1.4524   -9.5053    0.4929 C.ar      1 <0>        -0.1468
     31 H2         -1.3429    1.9119   -2.7922 H         1 <0>         0.0671
     32 H3         -0.5919    2.0920   -4.3959 H         1 <0>         0.0667
     33 H4         -2.3637    2.1380   -4.2327 H         1 <0>         0.0830
     34 H5         -2.3586   -0.2337   -3.5089 H         1 <0>         0.0689
     35 H6         -1.6077   -0.0536   -5.1125 H         1 <0>         0.0685
     36 H7          1.9310   -1.4184   -1.6389 H         1 <0>         0.0616
     37 H8          2.9761   -2.1320   -2.8906 H         1 <0>         0.0775
     38 H9          2.0786   -0.6326   -3.2292 H         1 <0>         0.0823
     39 H10         1.0331   -3.9215   -5.3475 H         1 <0>         0.1276
     40 H11         1.1585   -6.3789   -5.3577 H         1 <0>         0.1296
     41 H12         1.0833   -6.4004   -1.0828 H         1 <0>         0.1580
     42 H13         0.9678   -3.9425   -1.0725 H         1 <0>         0.1280
     43 H14         1.6299   -8.4040   -3.9641 H         1 <0>         0.4059
     44 H15         0.6982  -10.9763   -4.1210 H         1 <0>         0.0701
     45 H16         2.1180   -9.9783   -3.7572 H         1 <0>         0.0753
     46 H17         1.4363  -12.7519   -2.7397 H         1 <0>         0.0722
     47 H18         2.9267  -12.1861   -3.5262 H         1 <0>         0.0802
     48 H19         3.6661  -12.2126   -1.3606 H         1 <0>         0.0663
     49 H20         2.9633  -10.5769   -1.3836 H         1 <0>         0.0642
     50 H21         1.2321  -12.9455   -0.7068 H         1 <0>         0.0610
     51 H22         2.3221  -12.2927    0.5216 H         1 <0>         0.0628
     52 H23         0.1407  -11.3722    0.7759 H         1 <0>         0.0800
     53 H24         1.2785  -10.1077    0.2626 H         1 <0>         0.0745
     54 H25        -2.1623   -9.7281   -2.7929 H         1 <0>         0.1220
     55 H26        -4.0579   -8.3573   -2.0234 H         1 <0>         0.1490
     56 H27        -2.6632   -8.4337    1.8849 H         1 <0>         0.1509
     57 H28        -0.7322   -9.8171    1.2350 H         1 <0>         0.1332
@<TRIPOS>BOND
     1    1    2 1
     2    1   31 1
     3    1   32 1
     4    1   33 1
     5    2    3 1
     6    2   34 1
     7    2   35 1
     8    3    4 1
     9    4    5 2
    10    4    6 am
    11    6    7 1
    12    6    8 1
    13    7   36 1
    14    7   37 1
    15    7   38 1
    16    8   13 ar
    17    8    9 ar
    18    9   10 ar
    19    9   39 1
    20   10   11 ar
    21   10   40 1
    22   11   12 ar
    23   11   14 1
    24   12   13 ar
    25   12   41 1
    26   13   42 1
    27   14   15 am
    28   14   43 1
    29   15   16 2
    30   15   17 am
    31   17   23 1
    32   17   18 1
    33   18   19 1
    34   18   44 1
    35   18   45 1
    36   19   20 1
    37   19   46 1
    38   19   47 1
    39   20   21 1
    40   20   48 1
    41   20   49 1
    42   21   22 1
    43   21   50 1
    44   21   51 1
    45   22   23 1
    46   22   52 1
    47   22   53 1
    48   23   24 1
    49   23   25 1
    50   25   30 ar
    51   25   26 ar
    52   26   27 ar
    53   26   54 1
    54   27   28 ar
    55   27   55 1
    56   28   29 ar
    57   29   30 ar
    58   29   56 1
    59   30   57 1
