@<TRIPOS>MOLECULE
ZINC39373560
   38    40     0     0     0
SMALL
USER_CHARGES

@<TRIPOS>ATOM
      1 C1         -1.2552    0.6274   -0.2415 C.3       1 <0>         0.0234
      2 O1          0.0026   -0.0052    0.0030 O.3       1 <0>        -0.3122
      3 C2          0.6065   -0.6082   -1.0557 C.ar      1 <0>         0.1484
      4 C3          0.0020   -0.5852   -2.3040 C.ar      1 <0>        -0.1961
      5 C4          0.6147   -1.1974   -3.3796 C.ar      1 <0>        -0.0391
      6 C5          1.8361   -1.8360   -3.2112 C.ar      1 <0>         0.1019
      7 C6          2.4405   -1.8587   -1.9614 C.ar      1 <0>        -0.0638
      8 C7          1.8294   -1.2412   -0.8880 C.ar      1 <0>        -0.1405
      9 N1          2.4581   -2.4577   -4.3019 N.pl3     1 <0>        -0.5330
     10 C8          2.6784   -3.9019   -4.4794 C.3       1 <0>         0.2717
     11 H1          3.3116   -4.2918   -3.6824 H         1 <0>         0.1075
     12 N2          3.3644   -4.0076   -5.7825 N.3       1 <0>        -0.4496
     13 N3          3.4932   -2.7306   -6.2487 N.pl3     1 <0>        -0.5194
     14 C9          2.9632   -1.8492   -5.3905 C.2       1 <0>         0.5378
     15 S1          2.9360   -0.1565   -5.6451 S.2       1 <0>        -0.5703
     16 C10         1.3425   -4.6470   -4.5127 C.3       1 <0>        -0.0875
     17 C11         1.5965   -6.1313   -4.5715 C.2       1 <0>         0.2057
     18 N4          1.8226   -6.7429   -5.7745 N.am      1 <0>        -0.6278
     19 C12         2.0509   -8.0673   -5.8377 C.2       1 <0>         0.7002
     20 O2          2.2495   -8.5903   -6.9172 O.2       1 <0>        -0.5338
     21 N5          2.0628   -8.8213   -4.7228 N.am      1 <0>        -0.6591
     22 C13         1.8442   -8.2565   -3.5181 C.2       1 <0>         0.5502
     23 O3          1.8549   -8.9379   -2.5089 O.2       1 <0>        -0.5076
     24 C14         1.6074   -6.8630   -3.4368 C.2       1 <0>        -0.2841
     25 H2         -1.1292    1.4088   -0.9910 H         1 <0>         0.0603
     26 H3         -1.9694   -0.1119   -0.6040 H         1 <0>         0.0590
     27 H4         -1.6263    1.0679    0.6838 H         1 <0>         0.1043
     28 H5         -0.9481   -0.0887   -2.4347 H         1 <0>         0.1390
     29 H6          0.1439   -1.1797   -4.3513 H         1 <0>         0.1327
     30 H7          3.3905   -2.3552   -1.8298 H         1 <0>         0.1329
     31 H8          2.3015   -1.2549    0.0832 H         1 <0>         0.1419
     32 H9          4.2664   -4.4484   -5.6816 H         1 <0>         0.3627
     33 H10         0.7725   -4.4112   -3.6141 H         1 <0>         0.1252
     34 H11         0.7771   -4.3400   -5.3926 H         1 <0>         0.1089
     35 H12         2.2289   -9.7748   -4.7863 H         1 <0>         0.4335
     36 H13         1.4344   -6.3922   -2.4804 H         1 <0>         0.1733
     37 H14         1.8181   -6.2167   -6.5893 H         1 <0>         0.4395
     38 H15         3.9101   -2.4933   -7.0917 H         1 <0>         0.4639
@<TRIPOS>BOND
     1    1    2 1
     2    1   25 1
     3    1   26 1
     4    1   27 1
     5    2    3 1
     6    3    8 ar
     7    3    4 ar
     8    4    5 ar
     9    4   28 1
    10    5    6 ar
    11    5   29 1
    12    6    7 ar
    13    6    9 1
    14    7    8 ar
    15    7   30 1
    16    8   31 1
    17    9   14 1
    18    9   10 1
    19   10   11 1
    20   10   12 1
    21   10   16 1
    22   12   13 1
    23   12   32 1
    24   13   14 1
    25   13   38 1
    26   14   15 2
    27   16   33 1
    28   16   34 1
    29   16   17 1
    30   17   24 2
    31   17   18 1
    32   18   19 am
    33   18   37 1
    34   19   20 2
    35   19   21 am
    36   21   35 1
    37   21   22 am
    38   22   23 2
    39   22   24 1
    40   24   36 1
