@<TRIPOS>MOLECULE
ZINC12889854
   57    58     0     0     0
SMALL
USER_CHARGES
(2R)-2-[[(2S,3R)-3-methyl-2-[(3-oxo2,4-dihydroquinoxaline-1-carbonyl)amino]pentanoyl]amino]-4-methylsulfanyl-butanoic acid
@<TRIPOS>ATOM
      1 C1          0.4527   -4.7231    0.6440 C.3       1 <0>        -0.1474
      2 C2          1.7544   -4.0283    1.0485 C.3       1 <0>        -0.1109
      3 C3          1.5770   -2.5122    0.9443 C.3       1 <0>        -0.0972
      4 H1          0.7075   -2.2073    1.5266 H         1 <0>         0.0822
      5 C4          2.8252   -1.8140    1.4880 C.3       1 <0>        -0.1466
      6 C5          1.3719   -2.1222   -0.5209 C.3       1 <0>         0.1491
      7 H2          0.5456   -2.6978   -0.9378 H         1 <0>         0.1156
      8 C6          1.0548   -0.6516   -0.6096 C.2       1 <0>         0.5184
      9 O1          1.9261    0.1402   -0.9009 O.2       1 <0>        -0.5425
     10 N1         -0.1971   -0.2162   -0.3652 N.am      1 <0>        -0.6928
     11 C7         -0.5320    1.1968   -0.5585 C.3       1 <0>         0.1074
     12 H3          0.3367    1.8116   -0.3229 H         1 <0>         0.0948
     13 C8         -1.6914    1.5770    0.3647 C.3       1 <0>        -0.0928
     14 C9         -1.2565    1.4155    1.8226 C.3       1 <0>        -0.0760
     15 S1         -2.6681    1.7414    2.9143 S.3       1 <0>        -0.2706
     16 C10        -1.9947    1.5113    4.5829 C.3       1 <0>        -0.1213
     17 C11        -0.9355    1.4259   -1.9922 C.2       1 <0>         0.4587
     18 O2         -0.9427    0.5035   -2.7726 O.co2     1 <0>        -0.6258
     19 N2          2.5944   -2.4046   -1.2771 N.am      1 <0>        -0.7136
     20 C12         2.8113   -3.6399   -1.7707 C.2       1 <0>         0.7160
     21 O3          1.9923   -4.5198   -1.5883 O.2       1 <0>        -0.5523
     22 N3          3.9360   -3.8997   -2.4664 N.am      1 <0>        -0.5724
     23 C13         4.9422   -2.8531   -2.7009 C.3       1 <0>         0.0910
     24 C14         5.4316   -2.9518   -4.1231 C.2       1 <0>         0.5140
     25 O4          5.8214   -1.9545   -4.6929 O.2       1 <0>        -0.5090
     26 N4          5.4410   -4.1331   -4.7690 N.am      1 <0>        -0.6559
     27 C15         4.9503   -5.2895   -4.1526 C.ar      1 <0>         0.1253
     28 C16         4.1874   -5.1798   -2.9855 C.ar      1 <0>         0.1368
     29 C17         3.6934   -6.3121   -2.3644 C.ar      1 <0>        -0.0891
     30 C18         3.9621   -7.5604   -2.8982 C.ar      1 <0>        -0.1198
     31 C19         4.7215   -7.6760   -4.0477 C.ar      1 <0>        -0.1069
     32 C20         5.2137   -6.5418   -4.6832 C.ar      1 <0>        -0.1349
     33 H4          0.5634   -5.8007    0.7646 H         1 <0>         0.0473
     34 H5         -0.3605   -4.3682    1.2771 H         1 <0>         0.0420
     35 H6          0.2279   -4.4953   -0.3980 H         1 <0>         0.0743
     36 H7          2.5578   -4.3465    0.3841 H         1 <0>         0.0702
     37 H8          2.0048   -4.2951    2.0752 H         1 <0>         0.0532
     38 H9          2.6988   -0.7339    1.4138 H         1 <0>         0.0601
     39 H10         2.9713   -2.0919    2.5318 H         1 <0>         0.0553
     40 H11         3.6947   -2.1190    0.9057 H         1 <0>         0.0548
     41 H12        -0.8763   -0.8385   -0.0614 H         1 <0>         0.3951
     42 H13        -1.9756    2.6135    0.1830 H         1 <0>         0.0976
     43 H14        -2.5429    0.9265    0.1653 H         1 <0>         0.0728
     44 H15        -0.8991    0.3986    1.9846 H         1 <0>         0.0783
     45 H16        -0.4559    2.1215    2.0434 H         1 <0>         0.0802
     46 H17        -2.7792    1.6880    5.3188 H         1 <0>         0.0979
     47 H18        -1.6218    0.4924    4.6869 H         1 <0>         0.0730
     48 H19        -1.1787    2.2153    4.7456 H         1 <0>         0.0735
     49 H20         3.2478   -1.7026   -1.4226 H         1 <0>         0.4062
     50 H21         4.4941   -1.8732   -2.5366 H         1 <0>         0.1268
     51 H22         5.7792   -2.9922   -2.0167 H         1 <0>         0.1131
     52 H23         5.7923   -4.1831   -5.6718 H         1 <0>         0.4144
     53 H24         3.0999   -6.2227   -1.4665 H         1 <0>         0.1527
     54 H25         3.5778   -8.4467   -2.4153 H         1 <0>         0.1294
     55 H26         4.9286   -8.6531   -4.4586 H         1 <0>         0.1283
     56 H27         5.8066   -6.6353   -5.5811 H         1 <0>         0.1319
     57 O5         -1.2870    2.6547   -2.4024 O.co2     1 <0>        -0.7601
@<TRIPOS>BOND
     1    1    2 1
     2    1   33 1
     3    1   34 1
     4    1   35 1
     5    2    3 1
     6    2   36 1
     7    2   37 1
     8    3    4 1
     9    3    5 1
    10    3    6 1
    11    5   38 1
    12    5   39 1
    13    5   40 1
    14    6    7 1
    15    6    8 1
    16    6   19 1
    17    8    9 2
    18    8   10 am
    19   10   11 1
    20   10   41 1
    21   11   12 1
    22   11   13 1
    23   11   17 1
    24   13   14 1
    25   13   42 1
    26   13   43 1
    27   14   15 1
    28   14   44 1
    29   14   45 1
    30   15   16 1
    31   16   46 1
    32   16   47 1
    33   16   48 1
    34   17   18 2
    35   17   57 1
    36   19   20 am
    37   19   49 1
    38   20   21 2
    39   20   22 am
    40   22   28 1
    41   22   23 1
    42   23   24 1
    43   23   50 1
    44   23   51 1
    45   24   25 2
    46   24   26 am
    47   26   27 1
    48   26   52 1
    49   27   32 ar
    50   27   28 ar
    51   28   29 ar
    52   29   30 ar
    53   29   53 1
    54   30   31 ar
    55   30   54 1
    56   31   32 ar
    57   31   55 1
    58   32   56 1
