@<TRIPOS>MOLECULE
ZINC20109917
   38    40     0     0     0
SMALL
USER_CHARGES

@<TRIPOS>ATOM
      1 C1         -0.1278    1.2934   -0.0554 C.3       1 <0>         0.0178
      2 O1          0.2334   -0.0808    0.0963 O.3       1 <0>        -0.2520
      3 C2          0.9476   -0.6429   -0.9069 C.2       1 <0>         0.2300
      4 C3          1.3772   -1.9336   -0.9464 C.2       1 <0>        -0.2352
      5 C4          2.0722   -2.1012   -2.1490 C.2       1 <0>        -0.0439
      6 C5          2.0352   -0.8868   -2.7998 C.2       1 <0>        -0.1328
      7 O2          1.3424   -0.0209   -2.0264 O.3       1 <0>        -0.2002
      8 C6          2.6344   -0.5891   -4.0989 C.2       1 <0>         0.6197
      9 O3          3.1251   -1.4843   -4.7626 O.2       1 <0>        -0.4680
     10 N1          2.6441    0.6764   -4.5625 N.am      1 <0>        -0.6120
     11 C7          2.1921    1.7956   -3.7155 C.3       1 <0>         0.1768
     12 C8          3.1865    2.9163   -3.8878 C.2       1 <0>         0.0343
     13 C9          4.1468    2.9391   -4.8369 C.2       1 <0>         0.0476
     14 N2          4.8349    4.0764   -4.6955 N.pl3     1 <0>        -0.4646
     15 C10         4.3402    4.7566   -3.6946 C.cat     1 <0>         0.3135
     16 N3          3.3077    4.0614   -3.1637 N.pl3     1 <0>        -0.4955
     17 H1          2.7584    4.3289   -2.4104 H         1 <0>         0.4682
     18 C11         4.3674    1.8451   -5.8515 C.3       1 <0>        -0.0701
     19 C12         3.1114    0.9775   -5.9239 C.3       1 <0>         0.1606
     20 H2          2.3325    1.5138   -6.4660 H         1 <0>         0.1281
     21 C13         3.4322   -0.3080   -6.6419 C.2       1 <0>         0.4705
     22 O4          4.4729   -0.8804   -6.4200 O.2       1 <0>        -0.4685
     23 O5          2.5619   -0.8172   -7.5279 O.3       1 <0>        -0.3489
     24 C14         2.9309   -2.0386   -8.1713 C.3       1 <0>         0.0380
     25 H3          0.7743    1.8982   -0.1471 H         1 <0>         0.0583
     26 H4         -0.7375    1.4121   -0.9511 H         1 <0>         0.0668
     27 H5         -0.6958    1.6181    0.8164 H         1 <0>         0.1182
     28 H6          1.2127   -2.6874   -0.1906 H         1 <0>         0.1724
     29 H7          2.5460   -3.0063   -2.4993 H         1 <0>         0.1740
     30 H8          1.2028    2.1252   -4.0330 H         1 <0>         0.1223
     31 H9          2.1627    1.4828   -2.6718 H         1 <0>         0.1366
     32 H10         4.6969    5.7155   -3.3485 H         1 <0>         0.2736
     33 H11         4.5653    2.2872   -6.8280 H         1 <0>         0.1262
     34 H12         5.2152    1.2310   -5.5480 H         1 <0>         0.1302
     35 H13         3.8591   -1.8923   -8.7236 H         1 <0>         0.0636
     36 H14         3.0733   -2.8161   -7.4208 H         1 <0>         0.0687
     37 H15         2.1416   -2.3391   -8.8604 H         1 <0>         0.1066
     38 H16         5.5829    4.3529   -5.2477 H         1 <0>         0.4686
@<TRIPOS>BOND
     1    1    2 1
     2    1   25 1
     3    1   26 1
     4    1   27 1
     5    2    3 1
     6    3    7 1
     7    3    4 2
     8    4    5 1
     9    4   28 1
    10    5    6 2
    11    5   29 1
    12    6    7 1
    13    6    8 1
    14    8    9 2
    15    8   10 am
    16   10   19 1
    17   10   11 1
    18   11   12 1
    19   11   30 1
    20   11   31 1
    21   12   16 1
    22   12   13 2
    23   13   14 1
    24   13   18 1
    25   14   15 2
    26   14   38 1
    27   15   16 1
    28   15   32 1
    29   16   17 1
    30   18   19 1
    31   18   33 1
    32   18   34 1
    33   19   20 1
    34   19   21 1
    35   21   22 2
    36   21   23 1
    37   23   24 1
    38   24   35 1
    39   24   36 1
    40   24   37 1
