@<TRIPOS>MOLECULE
ZINC50751223
   33    33     0     0     0
SMALL
USER_CHARGES

@<TRIPOS>ATOM
      1 C1          0.0501    1.4436    0.0622 C.3       1 <0>         0.0540
      2 N1          0.0465   -0.0211    0.0323 N.pl3     1 <0>        -0.7032
      3 C2          0.5324   -0.6953   -1.0833 C.ar      1 <0>         0.3148
      4 C3          0.1625   -2.0176   -1.3114 C.ar      1 <0>        -0.1297
      5 C4          0.6410   -2.6874   -2.4142 C.ar      1 <0>         0.0615
      6 C5          1.4997   -2.0387   -3.3065 C.ar      1 <0>        -0.1863
      7 C6          1.8698   -0.7106   -3.0755 C.ar      1 <0>         0.0203
      8 C7          1.3835   -0.0439   -1.9729 C.ar      1 <0>        -0.1251
      9 Cl1         1.8370    1.6074   -1.6881 Cl        1 <0>        -0.0276
     10 C8          2.0145   -2.7544   -4.4893 C.2       1 <0>         0.5753
     11 O1          1.6920   -3.9097   -4.6889 O.2       1 <0>        -0.5266
     12 N2          2.8422   -2.1277   -5.3487 N.am      1 <0>        -0.7155
     13 C9          3.3535   -2.8384   -6.5233 C.3       1 <0>         0.1001
     14 C10         4.2501   -1.9213   -7.3145 C.2       1 <0>         0.5080
     15 O2          4.4431   -0.7858   -6.9346 O.2       1 <0>        -0.5358
     16 N3          4.8376   -2.3629   -8.4443 N.am      1 <0>        -0.7282
     17 C11         5.7093   -1.4714   -9.2134 C.3       1 <0>         0.0852
     18 N4         -0.7463   -2.7045   -0.3662 N.pl3     1 <0>         0.0542
     19 O3         -0.9773   -3.8838   -0.4986 O.2       1 <0>        -0.1388
     20 O4         -1.2576   -2.0862    0.5382 O.3       1 <0>        -0.1866
     21 H1          1.0787    1.8042    0.0744 H         1 <0>         0.0857
     22 H2         -0.4586    1.8263   -0.8226 H         1 <0>         0.0699
     23 H3         -0.4670    1.7901    0.9570 H         1 <0>         0.0827
     24 H4         -0.2947   -0.5208    0.7905 H         1 <0>         0.4248
     25 H5          0.3536   -3.7135   -2.5901 H         1 <0>         0.1735
     26 H6          2.5333   -0.2069   -3.7628 H         1 <0>         0.1558
     27 H7          3.0995   -1.2061   -5.1895 H         1 <0>         0.4113
     28 H8          3.9204   -3.7119   -6.2012 H         1 <0>         0.1060
     29 H9          2.5184   -3.1571   -7.1471 H         1 <0>         0.1059
     30 H10         4.6832   -3.2711   -8.7481 H         1 <0>         0.4075
     31 H11         5.1423   -0.5979   -9.5355 H         1 <0>         0.0633
     32 H12         6.5444   -1.1527   -8.5896 H         1 <0>         0.0633
     33 H13         6.0896   -2.0002  -10.0873 H         1 <0>         0.0804
@<TRIPOS>BOND
     1    1    2 1
     2    1   21 1
     3    1   22 1
     4    1   23 1
     5    2    3 1
     6    2   24 1
     7    3    8 ar
     8    3    4 ar
     9    4    5 ar
    10    4   18 1
    11    5    6 ar
    12    5   25 1
    13    6    7 ar
    14    6   10 1
    15    7    8 ar
    16    7   26 1
    17    8    9 1
    18   10   11 2
    19   10   12 am
    20   12   13 1
    21   12   27 1
    22   13   14 1
    23   13   28 1
    24   13   29 1
    25   14   15 2
    26   14   16 am
    27   16   17 1
    28   16   30 1
    29   17   31 1
    30   17   32 1
    31   17   33 1
    32   18   19 2
    33   18   20 1
