@<TRIPOS>MOLECULE
ZINC46756807
   39    41     0     0     0
SMALL
USER_CHARGES

@<TRIPOS>ATOM
      1 C1         -0.1354    1.4065    0.6312 C.2       1 <0>        -0.0756
      2 C2          1.0469    2.0678    0.4000 C.2       1 <0>        -0.0860
      3 C3          2.0973    1.3803   -0.1123 C.2       1 <0>        -0.2238
      4 S1          1.5148   -0.1846   -0.2966 S.3       1 <0>         0.3474
      5 C4         -0.1441    0.0578    0.3094 C.2       1 <0>        -0.2084
      6 C5         -1.2333   -0.9151    0.4353 C.2       1 <0>         0.6065
      7 O1         -2.3511   -0.5413    0.7384 O.2       1 <0>        -0.4988
      8 N1         -0.9968   -2.2236    0.2153 N.am      1 <0>        -0.6090
      9 C6          0.3791   -2.7236    0.0859 C.3       1 <0>         0.0953
     10 C7          0.5898   -3.8485    1.1069 C.3       1 <0>         0.0993
     11 N2         -0.5236   -4.8010    0.9926 N.am      1 <0>        -0.6005
     12 C8         -1.8995   -4.3010    1.1220 C.3       1 <0>         0.0978
     13 C9         -2.1099   -3.1769    0.1066 C.3       1 <0>         0.1007
     14 C10        -0.2871   -6.1095    0.7726 C.2       1 <0>         0.5914
     15 O2          0.8547   -6.5264    0.7565 O.2       1 <0>        -0.5154
     16 C11        -1.4154   -7.0371    0.5512 C.ar      1 <0>        -0.0361
     17 C12        -1.6881   -7.5216   -0.7387 C.ar      1 <0>         0.3974
     18 N3         -2.7046   -8.3553   -0.9263 N.ar      1 <0>        -0.4979
     19 C13        -3.4528   -8.7245    0.0973 C.ar      1 <0>         0.1315
     20 C14        -3.1830   -8.2455    1.3713 C.ar      1 <0>        -0.0141
     21 N4         -2.1747   -7.4218    1.5730 N.ar      1 <0>        -0.3716
     22 N5         -0.9023   -7.1321   -1.8078 N.pl3     1 <0>        -0.8276
     23 N6          3.4483    1.8917   -0.4356 N.pl3     1 <0>         0.0720
     24 O3          3.7160    3.0551   -0.2444 O.2       1 <0>        -0.1268
     25 O4          4.2839    1.1461   -0.8910 O.3       1 <0>        -0.1389
     26 H1         -1.0014    1.9046    1.0417 H         1 <0>         0.1744
     27 H2          1.1380    3.1206    0.6230 H         1 <0>         0.1658
     28 H3          0.5348   -3.1099   -0.9214 H         1 <0>         0.0963
     29 H4          1.0824   -1.9144    0.2828 H         1 <0>         0.0834
     30 H5          1.5305   -4.3588    0.9000 H         1 <0>         0.1186
     31 H6          0.6114   -3.4300    2.1131 H         1 <0>         0.0859
     32 H7         -2.6028   -5.1101    0.9250 H         1 <0>         0.0991
     33 H8         -2.0552   -3.9147    2.1293 H         1 <0>         0.0872
     34 H9         -3.0501   -2.6671    0.3171 H         1 <0>         0.1153
     35 H10        -2.1356   -3.5962   -0.8992 H         1 <0>         0.0819
     36 H11        -4.2791   -9.4023   -0.0580 H         1 <0>         0.1790
     37 H12        -3.8002   -8.5528    2.2026 H         1 <0>         0.1776
     38 H13        -0.1176   -6.5820   -1.6579 H         1 <0>         0.4135
     39 H14        -1.1359   -7.4089   -2.7076 H         1 <0>         0.4131
@<TRIPOS>BOND
     1    1    5 2
     2    1    2 1
     3    1   26 1
     4    2    3 2
     5    2   27 1
     6    3    4 1
     7    3   23 1
     8    4    5 1
     9    5    6 1
    10    6    7 2
    11    6    8 am
    12    8   13 1
    13    8    9 1
    14    9   10 1
    15    9   28 1
    16    9   29 1
    17   10   11 1
    18   10   30 1
    19   10   31 1
    20   11   12 1
    21   11   14 am
    22   12   13 1
    23   12   32 1
    24   12   33 1
    25   13   34 1
    26   13   35 1
    27   14   15 2
    28   14   16 1
    29   16   21 ar
    30   16   17 ar
    31   17   18 ar
    32   17   22 1
    33   18   19 ar
    34   19   20 ar
    35   19   36 1
    36   20   21 ar
    37   20   37 1
    38   22   38 1
    39   22   39 1
    40   23   24 2
    41   23   25 1
