@<TRIPOS>MOLECULE
ZINC67138435
   53    56     0     0     0
SMALL
USER_CHARGES

@<TRIPOS>ATOM
      1 C1         -0.3532    1.4763    0.0492 C.3       1 <0>        -0.0997
      2 C2         -0.1416   -0.0155    0.0187 C.2       1 <0>         0.1329
      3 C3         -0.1693   -0.8199   -1.0853 C.2       1 <0>        -0.1179
      4 N1          0.0648   -2.0850   -0.6963 N.2       1 <0>        -0.2113
      5 N2          0.2364   -2.1195    0.5793 N.2       1 <0>        -0.0170
      6 N3          0.1178   -0.8141    1.0770 N.pl3     1 <0>        -0.2987
      7 C4          0.2414   -0.4155    2.4134 C.ar      1 <0>         0.1337
      8 C5          1.0217    0.6700    2.7443 C.ar      1 <0>        -0.0775
      9 C6          1.1533    1.0770    4.0687 C.ar      1 <0>        -0.1105
     10 C7          0.5147    0.4135    5.0722 C.ar      1 <0>        -0.0675
     11 C8         -0.2903   -0.6977    4.7750 C.ar      1 <0>        -0.0961
     12 C9         -0.4373   -1.1196    3.4309 C.ar      1 <0>         0.1411
     13 N4         -1.2058   -2.1739    3.1444 N.ar      1 <0>        -0.4665
     14 C10        -1.8385   -2.8322    4.0851 C.ar      1 <0>         0.1464
     15 C11        -1.7423   -2.4671    5.4262 C.ar      1 <0>        -0.1674
     16 C12        -0.9634   -1.4055    5.7893 C.ar      1 <0>        -0.0494
     17 C13        -0.4146   -0.3751   -2.4702 C.2       1 <0>         0.6170
     18 O1         -0.6155    0.8010   -2.7045 O.2       1 <0>        -0.5270
     19 N5         -0.4159   -1.2724   -3.4759 N.am      1 <0>        -0.7218
     20 C14        -0.6595   -0.8307   -4.8513 C.3       1 <0>         0.1284
     21 C15        -0.6076   -2.0369   -5.7911 C.3       1 <0>        -0.1249
     22 H1         -1.3104   -2.7958   -5.4474 H         1 <0>         0.0935
     23 C16         0.8078   -2.6180   -5.7973 C.3       1 <0>        -0.1617
     24 C17        -0.9843   -1.5967   -7.2072 C.3       1 <0>         0.0972
     25 N6         -1.0509   -2.7701   -8.0818 N.pl3     1 <0>        -0.4041
     26 C18        -0.0465   -3.2454   -8.8811 C.2       1 <0>         0.0260
     27 C19        -0.5305   -4.3339   -9.5092 C.2       1 <0>         0.0033
     28 N7         -1.7959   -4.5182   -9.1045 N.pl3     1 <0>        -0.4777
     29 C20        -2.1128   -3.5882   -8.2456 C.cat     1 <0>         0.3142
     30 C21        -3.4444   -3.4481   -7.5541 C.3       1 <0>        -0.1169
     31 H2          0.5862    1.9812   -0.1758 H         1 <0>         0.0976
     32 H3         -1.1012    1.7524   -0.6941 H         1 <0>         0.1106
     33 H4         -0.6978    1.7742    1.0394 H         1 <0>         0.0789
     34 H5          1.5384    1.2121    1.9661 H         1 <0>         0.1419
     35 H6          1.7710    1.9310    4.3041 H         1 <0>         0.1467
     36 H7          0.6276    0.7416    6.0949 H         1 <0>         0.1446
     37 H8         -2.4505   -3.6796    3.8134 H         1 <0>         0.1650
     38 H9         -2.2757   -3.0286    6.1790 H         1 <0>         0.1460
     39 H10        -0.8764   -1.1093    6.8242 H         1 <0>         0.1490
     40 H11        -0.2556   -2.2106   -3.2890 H         1 <0>         0.4103
     41 H12        -1.6422   -0.3632   -4.9141 H         1 <0>         0.0796
     42 H13         0.1049   -0.1101   -5.1423 H         1 <0>         0.0819
     43 H14         1.0762   -2.9315   -4.7885 H         1 <0>         0.0766
     44 H15         0.8448   -3.4773   -6.4668 H         1 <0>         0.0567
     45 H16         1.5106   -1.8590   -6.1410 H         1 <0>         0.0719
     46 H17        -1.9556   -1.1025   -7.1877 H         1 <0>         0.1245
     47 H18        -0.2319   -0.9044   -7.5847 H         1 <0>         0.1316
     48 H19         0.9437   -2.8276   -8.9877 H         1 <0>         0.2228
     49 H20         0.0063   -4.9504  -10.2151 H         1 <0>         0.2241
     50 H21        -4.1028   -2.8224   -8.1567 H         1 <0>         0.1231
     51 H22        -3.8939   -4.4332   -7.4285 H         1 <0>         0.1181
     52 H23        -3.2996   -2.9876   -6.5768 H         1 <0>         0.1153
     53 H24        -2.3818   -5.2322   -9.4007 H         1 <0>         0.4629
@<TRIPOS>BOND
     1    1    2 1
     2    1   31 1
     3    1   32 1
     4    1   33 1
     5    2    6 1
     6    2    3 2
     7    3    4 1
     8    3   17 1
     9    4    5 2
    10    5    6 1
    11    6    7 1
    12    7   12 ar
    13    7    8 ar
    14    8    9 ar
    15    8   34 1
    16    9   10 ar
    17    9   35 1
    18   10   11 ar
    19   10   36 1
    20   11   16 ar
    21   11   12 ar
    22   12   13 ar
    23   13   14 ar
    24   14   15 ar
    25   14   37 1
    26   15   16 ar
    27   15   38 1
    28   16   39 1
    29   17   18 2
    30   17   19 am
    31   19   20 1
    32   19   40 1
    33   20   21 1
    34   20   41 1
    35   20   42 1
    36   21   22 1
    37   21   23 1
    38   21   24 1
    39   23   43 1
    40   23   44 1
    41   23   45 1
    42   24   25 1
    43   24   46 1
    44   24   47 1
    45   25   29 1
    46   25   26 1
    47   26   27 2
    48   26   48 1
    49   27   28 1
    50   27   49 1
    51   28   29 2
    52   28   53 1
    53   29   30 1
    54   30   50 1
    55   30   51 1
    56   30   52 1
