@<TRIPOS>MOLECULE
ZINC58988459
   50    52     0     0     0
SMALL
USER_CHARGES

@<TRIPOS>ATOM
      1 C1         -0.5977    1.3771    0.4698 C.2       1 <0>        -0.1960
      2 C2         -0.5046    0.0734    0.3822 C.2       1 <0>        -0.1415
      3 C3          0.8451   -0.5761    0.2162 C.3       1 <0>        -0.0485
      4 C4          1.0491   -1.5964    1.3064 C.ar      1 <0>        -0.1113
      5 C5          1.7208   -1.2459    2.4628 C.ar      1 <0>        -0.0823
      6 C6          1.9136   -2.1759    3.4696 C.ar      1 <0>        -0.1310
      7 C7          1.4364   -3.4624    3.3286 C.ar      1 <0>        -0.0776
      8 C8          0.7559   -3.8289    2.1657 C.ar      1 <0>        -0.0859
      9 C9          0.5585   -2.8821    1.1508 C.ar      1 <0>         0.1514
     10 O1         -0.1068   -3.2256    0.0178 O.3       1 <0>        -0.4683
     11 C10         0.2434   -5.2017    2.0083 C.2       1 <0>         0.1078
     12 N1         -0.3886   -5.5384    0.9258 N.2       1 <0>        -0.2025
     13 N2         -0.8758   -6.8434    0.7763 N.am      1 <0>        -0.5822
     14 C11        -1.5321   -7.1930   -0.3478 C.2       1 <0>         0.5551
     15 O2         -1.7010   -6.3777   -1.2301 O.2       1 <0>        -0.4801
     16 C12        -2.0562   -8.5968   -0.5087 C.3       1 <0>        -0.1561
     17 S1         -2.8847   -8.7525   -2.1149 S.3       1 <0>         0.1196
     18 C13        -3.4339  -10.4263   -2.1507 C.2       1 <0>         0.1744
     19 N3         -3.2661  -11.3221   -1.2042 N.2       1 <0>        -0.2943
     20 N4         -3.7909  -12.4408   -1.5570 N.2       1 <0>        -0.2321
     21 C14        -4.3262  -12.3283   -2.7505 C.2       1 <0>         0.1922
     22 N5         -4.1188  -11.0331   -3.1654 N.pl3     1 <0>        -0.3024
     23 N6         -4.5129  -10.4716   -4.3467 N.3       1 <0>        -0.5815
     24 C15        -5.0240  -13.3910   -3.5039 C.ar      1 <0>        -0.0563
     25 C16        -4.7210  -13.6124   -4.8479 C.ar      1 <0>        -0.0907
     26 C17        -5.3757  -14.6058   -5.5460 C.ar      1 <0>        -0.1231
     27 C18        -6.3331  -15.3843   -4.9187 C.ar      1 <0>        -0.0823
     28 C19        -6.6420  -15.1739   -3.5879 C.ar      1 <0>        -0.1418
     29 C20        -5.9886  -14.1847   -2.8713 C.ar      1 <0>         0.1553
     30 O3         -6.2868  -13.9814   -1.5618 O.3       1 <0>        -0.4795
     31 H1          0.2927    1.9865    0.4231 H         1 <0>         0.0957
     32 H2         -1.5654    1.8429    0.5843 H         1 <0>         0.0980
     33 H3         -1.3950   -0.5360    0.4289 H         1 <0>         0.1113
     34 H4          0.8947   -1.0677   -0.7554 H         1 <0>         0.0843
     35 H5          1.6241    0.1836    0.2791 H         1 <0>         0.0765
     36 H6          2.0976   -0.2407    2.5811 H         1 <0>         0.1284
     37 H7          2.4401   -1.8932    4.3691 H         1 <0>         0.1309
     38 H8          1.5892   -4.1853    4.1164 H         1 <0>         0.1321
     39 H9          0.4627   -3.5708   -0.6834 H         1 <0>         0.3908
     40 H10         0.3937   -5.9275    2.7938 H         1 <0>         0.1224
     41 H11        -0.7408   -7.4953    1.4817 H         1 <0>         0.3881
     42 H12        -1.2268   -9.3023   -0.4577 H         1 <0>         0.1300
     43 H13        -2.7667   -8.8130    0.2891 H         1 <0>         0.1305
     44 H14        -3.8408  -10.6554   -5.0765 H         1 <0>         0.3678
     45 H15        -5.4316  -10.7939   -4.6116 H         1 <0>         0.3780
     46 H16        -3.9751  -13.0066   -5.3409 H         1 <0>         0.1227
     47 H17        -5.1407  -14.7767   -6.5862 H         1 <0>         0.1355
     48 H18        -6.8417  -16.1599   -5.4720 H         1 <0>         0.1361
     49 H19        -7.3905  -15.7845   -3.1050 H         1 <0>         0.1402
     50 H20        -7.0004  -13.3456   -1.4150 H         1 <0>         0.3922
@<TRIPOS>BOND
     1    1    2 2
     2    1   31 1
     3    1   32 1
     4    2    3 1
     5    2   33 1
     6    3    4 1
     7    3   34 1
     8    3   35 1
     9    4    9 ar
    10    4    5 ar
    11    5    6 ar
    12    5   36 1
    13    6    7 ar
    14    6   37 1
    15    7    8 ar
    16    7   38 1
    17    8    9 ar
    18    8   11 1
    19    9   10 1
    20   10   39 1
    21   11   12 2
    22   11   40 1
    23   12   13 1
    24   13   14 am
    25   13   41 1
    26   14   15 2
    27   14   16 1
    28   16   17 1
    29   16   42 1
    30   16   43 1
    31   17   18 1
    32   18   22 1
    33   18   19 2
    34   19   20 1
    35   20   21 2
    36   21   22 1
    37   21   24 1
    38   22   23 1
    39   23   44 1
    40   23   45 1
    41   24   29 ar
    42   24   25 ar
    43   25   26 ar
    44   25   46 1
    45   26   27 ar
    46   26   47 1
    47   27   28 ar
    48   27   48 1
    49   28   29 ar
    50   28   49 1
    51   29   30 1
    52   30   50 1
