@<TRIPOS>MOLECULE
ZINC37368913
   32    32     0     0     0
SMALL
USER_CHARGES

@<TRIPOS>ATOM
      1 C1          0.2899    1.7290    0.2017 C.3       1 <0>        -0.1595
      2 C2          0.0590    0.2234    0.0579 C.3       1 <0>        -0.1178
      3 C3          0.6713   -0.2632   -1.2571 C.3       1 <0>         0.0663
      4 H1          0.2660    0.3196   -2.0842 H         1 <0>         0.0846
      5 C4          0.3333   -1.7414   -1.4609 C.3       1 <0>        -0.1857
      6 O1          2.0903   -0.1010   -1.2105 O.3       1 <0>        -0.2563
      7 C5          2.7364    0.0240   -2.3996 C.ar      1 <0>         0.2805
      8 C6          2.0371   -0.1224   -3.5886 C.ar      1 <0>        -0.2727
      9 C7          2.6973    0.0053   -4.7976 C.ar      1 <0>         0.2865
     10 C8          4.0550    0.2791   -4.8199 C.ar      1 <0>        -0.7622
     11 C9          4.7519    0.4250   -3.6353 C.ar      1 <0>         0.1127
     12 C10         4.0949    0.3038   -2.4258 C.ar      1 <0>        -0.1191
     13 N1          4.8417    0.4664   -1.1584 N.pl3     1 <0>         0.0406
     14 O2          6.0256    0.7103   -1.1813 O.2       1 <0>        -0.1602
     15 O3          4.2677    0.3554   -0.1001 O.3       1 <0>        -0.1232
     16 S1          4.8947    0.4410   -6.3605 S.o2      1 <0>         2.7104
     17 O4          4.1180    1.3267   -7.1552 O.2       1 <0>        -0.9420
     18 O5          6.2598    0.6903   -6.0547 O.2       1 <0>        -0.9422
     19 N2          4.8389   -1.0365   -7.1062 N.pl3     1 <0>        -1.2425
     20 F1          2.0179   -0.1374   -5.9565 F         1 <0>        -0.0951
     21 H2          1.3604    1.9341    0.2016 H         1 <0>         0.0634
     22 H3         -0.1800    2.2499   -0.6325 H         1 <0>         0.0528
     23 H4         -0.1464    2.0756    1.1385 H         1 <0>         0.0651
     24 H5          0.5288   -0.2976    0.8922 H         1 <0>         0.0844
     25 H6         -1.0115    0.0183    0.0580 H         1 <0>         0.0910
     26 H7         -0.7490   -1.8651   -1.4964 H         1 <0>         0.0852
     27 H8          0.7696   -2.0880   -2.3977 H         1 <0>         0.0632
     28 H9          0.7387   -2.3242   -0.6338 H         1 <0>         0.0779
     29 H10         0.9787   -0.3362   -3.5705 H         1 <0>         0.1762
     30 H11         5.8104    0.6385   -3.6551 H         1 <0>         0.1915
     31 H12         4.8318   -1.0911   -8.0746 H         1 <0>         0.4273
     32 H13         4.8132   -1.8474   -6.5745 H         1 <0>         0.4187
@<TRIPOS>BOND
     1    1    2 1
     2    1   21 1
     3    1   22 1
     4    1   23 1
     5    2    3 1
     6    2   24 1
     7    2   25 1
     8    3    4 1
     9    3    5 1
    10    3    6 1
    11    5   26 1
    12    5   27 1
    13    5   28 1
    14    6    7 1
    15    7   12 ar
    16    7    8 ar
    17    8    9 ar
    18    8   29 1
    19    9   10 ar
    20    9   20 1
    21   10   11 ar
    22   10   16 1
    23   11   12 ar
    24   11   30 1
    25   12   13 1
    26   13   14 2
    27   13   15 1
    28   16   17 2
    29   16   18 2
    30   16   19 1
    31   19   31 1
    32   19   32 1
