@<TRIPOS>MOLECULE
ZINC07413356
   48    48     0     0     0
SMALL
USER_CHARGES
1-(methylcarbamoylcarbamoyl)ethyl isopropyl 3,5-dimethyl-1H-pyrrole-2,4-dicarboxylate
@<TRIPOS>ATOM
      1 C1         -0.0127    1.0858    0.0080 C.3       1 <0>        -0.1020
      2 C2         -0.7181    1.5718    1.2479 C.2       1 <0>        -0.0059
      3 C3         -2.0996    1.8380    1.3792 C.2       1 <0>        -0.2167
      4 C4         -2.3102    2.2584    2.6801 C.2       1 <0>         0.1336
      5 N1         -1.1307    2.2629    3.3201 N.pl3     1 <0>        -0.5102
      6 H1         -0.9947    2.5206    4.2453 H         1 <0>         0.4330
      7 C5         -0.1430    1.8439    2.4547 C.2       1 <0>        -0.0477
      8 C6          1.2817    1.7131    2.7761 C.2       1 <0>         0.5433
      9 O1          2.0641    1.3319    1.9269 O.2       1 <0>        -0.4889
     10 O2          1.7243    2.0157    4.0137 O.3       1 <0>        -0.3336
     11 C7          3.1470    1.8628    4.2606 C.3       1 <0>         0.0781
     12 H2          3.5417    1.0664    3.6297 H         1 <0>         0.1231
     13 C8          3.8649    3.1742    3.9356 C.3       1 <0>        -0.1694
     14 C9          3.3706    1.5134    5.7094 C.2       1 <0>         0.5216
     15 O3          2.4246    1.4041    6.4596 O.2       1 <0>        -0.4418
     16 N2          4.6224    1.3225    6.1711 N.am      1 <0>        -0.6865
     17 C10         4.8224    1.0100    7.4668 C.2       1 <0>         0.6932
     18 O4          3.8740    0.9005    8.2189 O.2       1 <0>        -0.5253
     19 N3          6.0741    0.8191    7.9285 N.am      1 <0>        -0.7394
     20 C11         6.2915    0.4795    9.3369 C.3       1 <0>         0.1016
     21 C12        -3.6377    2.6511    3.2755 C.3       1 <0>        -0.1037
     22 C13        -3.1226    1.6921    0.3301 C.2       1 <0>         0.5498
     23 O5         -3.7083    0.6358    0.1952 O.2       1 <0>        -0.4948
     24 O6         -3.4093    2.7298   -0.4804 O.3       1 <0>        -0.3444
     25 C14        -4.4285    2.5142   -1.4919 C.3       1 <0>         0.0780
     26 C15        -5.1445    3.8344   -1.7839 C.3       1 <0>        -0.1502
     27 C16        -3.7734    1.9951   -2.7734 C.3       1 <0>        -0.1718
     28 H3          0.0021   -0.0041    0.0020 H         1 <0>         0.0798
     29 H4          1.0099    1.4631    0.0003 H         1 <0>         0.0900
     30 H5         -0.5399    1.4469   -0.8751 H         1 <0>         0.0685
     31 H6          3.7032    3.4269    2.8877 H         1 <0>         0.0843
     32 H7          3.4702    3.9706    4.5665 H         1 <0>         0.0773
     33 H8          4.9329    3.0594    4.1209 H         1 <0>         0.0845
     34 H9          5.3793    1.4099    5.5709 H         1 <0>         0.4117
     35 H10         6.8311    0.9065    7.3283 H         1 <0>         0.4016
     36 H11         5.8968    1.2759    9.9678 H         1 <0>         0.0635
     37 H12         5.7801   -0.4548    9.5685 H         1 <0>         0.0634
     38 H13         7.3595    0.3646    9.5223 H         1 <0>         0.0825
     39 H14        -3.8018    3.7182    3.1255 H         1 <0>         0.0922
     40 H15        -4.4348    2.0890    2.7888 H         1 <0>         0.0896
     41 H16        -3.6368    2.4302    4.3429 H         1 <0>         0.0828
     42 H17        -5.1501    1.7817   -1.1302 H         1 <0>         0.0862
     43 H18        -4.4229    4.5669   -2.1455 H         1 <0>         0.0685
     44 H19        -5.9096    3.6726   -2.5432 H         1 <0>         0.0796
     45 H20        -5.6113    4.2043   -0.8709 H         1 <0>         0.0648
     46 H21        -4.5384    1.8332   -3.5327 H         1 <0>         0.0764
     47 H22        -3.0517    2.7276   -3.1350 H         1 <0>         0.0675
     48 H23        -3.2633    1.0545   -2.5653 H         1 <0>         0.0622
@<TRIPOS>BOND
     1    1    2 1
     2    1   28 1
     3    1   29 1
     4    1   30 1
     5    2    7 2
     6    2    3 1
     7    3    4 2
     8    3   22 1
     9    4    5 1
    10    4   21 1
    11    5    6 1
    12    5    7 1
    13    7    8 1
    14    8    9 2
    15    8   10 1
    16   10   11 1
    17   11   12 1
    18   11   13 1
    19   11   14 1
    20   13   31 1
    21   13   32 1
    22   13   33 1
    23   14   15 2
    24   14   16 am
    25   16   17 am
    26   16   34 1
    27   17   18 2
    28   17   19 am
    29   19   20 1
    30   19   35 1
    31   20   36 1
    32   20   37 1
    33   20   38 1
    34   21   39 1
    35   21   40 1
    36   21   41 1
    37   22   23 2
    38   22   24 1
    39   24   25 1
    40   25   26 1
    41   25   27 1
    42   25   42 1
    43   26   43 1
    44   26   44 1
    45   26   45 1
    46   27   46 1
    47   27   47 1
    48   27   48 1
