@<TRIPOS>MOLECULE
ZINC39696768
   71    74     0     0     0
SMALL
USER_CHARGES

@<TRIPOS>ATOM
      1 C1         -1.1917    1.3240   -0.3847 C.3       1 <0>        -0.1214
      2 C2         -0.5005   -0.0076   -0.2424 C.ar      1 <0>        -0.0306
      3 C3         -0.0121   -0.6666   -1.3711 C.ar      1 <0>        -0.1305
      4 C4          0.6273   -1.8992   -1.2311 C.ar      1 <0>        -0.0824
      5 C5          0.7743   -2.4614    0.0207 C.ar      1 <0>        -0.1136
      6 C6          0.2898   -1.8073    1.1380 C.ar      1 <0>        -0.0831
      7 C7         -0.3431   -0.5781    1.0092 C.ar      1 <0>         0.0800
      8 O1         -0.8128    0.0631    2.1120 O.3       1 <0>        -0.2951
      9 C8         -0.1085    1.1043    2.5836 C.2       1 <0>         0.4574
     10 O2          0.9562    1.3877    2.0878 O.2       1 <0>        -0.4893
     11 C9         -0.6460    1.9195    3.7315 C.3       1 <0>        -0.1454
     12 C10        -0.1717   -0.0614   -2.7107 C.2       1 <0>         0.5932
     13 O3         -0.0986    1.1444   -2.8455 O.2       1 <0>        -0.5163
     14 N1         -0.3984   -0.8468   -3.7822 N.am      1 <0>        -0.6198
     15 C11        -0.6435   -2.3082   -3.8017 C.3       1 <0>         0.1060
     16 C12        -1.7365   -2.5064   -4.8757 C.3       1 <0>        -0.1134
     17 H1         -2.7231   -2.5325   -4.4130 H         1 <0>         0.1140
     18 C13        -1.6091   -1.2810   -5.7961 C.3       1 <0>        -0.0727
     19 C14        -0.4653   -0.4428   -5.2071 C.3       1 <0>         0.1086
     20 C15        -2.9047   -0.4754   -5.7860 C.3       1 <0>        -0.1344
     21 C16        -2.7734    0.7056   -6.7519 C.3       1 <0>        -0.0113
     22 N2         -2.4950    0.2057   -8.1037 N.4       1 <0>        -0.5044
     23 C17        -1.2019   -0.4885   -8.1246 C.3       1 <0>        -0.0078
     24 C18        -1.2665   -1.7198   -7.2165 C.3       1 <0>        -0.1470
     25 C19        -1.4875   -3.7752   -5.6499 C.2       1 <0>         0.5208
     26 O4         -0.3641   -4.2249   -5.7320 O.2       1 <0>        -0.5211
     27 N3         -2.5132   -4.4102   -6.2510 N.am      1 <0>        -0.7198
     28 C20        -2.2711   -5.6436   -7.0035 C.3       1 <0>         0.1256
     29 C21        -3.5920   -6.1565   -7.5806 C.3       1 <0>         0.0838
     30 H2         -4.0159   -5.4033   -8.2447 H         1 <0>         0.0723
     31 C22        -3.3402   -7.4467   -8.3654 C.3       1 <0>         0.0221
     32 N4         -4.6224   -7.9762   -8.8521 N.3       1 <0>        -0.5415
     33 C23        -5.5369   -8.2383   -7.7313 C.3       1 <0>         0.0113
     34 C24        -5.7666   -6.9402   -6.9528 C.3       1 <0>         0.0662
     35 O5         -4.5074   -6.4229   -6.5146 O.3       1 <0>        -0.3800
     36 C25        -4.4197   -9.1861   -9.6602 C.3       1 <0>         0.0218
     37 H3         -0.4693    2.1262   -0.2340 H         1 <0>         0.0836
     38 H4         -1.6220    1.4052   -1.3828 H         1 <0>         0.0798
     39 H5         -1.9837    1.4036    0.3600 H         1 <0>         0.0696
     40 H6          1.0066   -2.4131   -2.1021 H         1 <0>         0.1356
     41 H7          1.2689   -3.4155    0.1276 H         1 <0>         0.1430
     42 H8          0.4077   -2.2520    2.1152 H         1 <0>         0.1409
     43 H9         -0.3002    1.4932    4.6732 H         1 <0>         0.1113
     44 H10        -0.2910    2.9464    3.6455 H         1 <0>         0.1095
     45 H11        -1.7357    1.9084    3.7061 H         1 <0>         0.0983
     46 H12         0.2648   -2.8422   -4.0808 H         1 <0>         0.1030
     47 H13        -1.0007   -2.6466   -2.8291 H         1 <0>         0.0978
     48 H14        -0.6915    0.6201   -5.2910 H         1 <0>         0.0911
     49 H15         0.4723   -0.6742   -5.7126 H         1 <0>         0.0860
     50 H16        -3.7316   -1.1123   -6.1001 H         1 <0>         0.0968
     51 H17        -3.0936   -0.1028   -4.7792 H         1 <0>         0.1185
     52 H18        -3.7036    1.2737   -6.7592 H         1 <0>         0.1400
     53 H19        -1.9567    1.3506   -6.4279 H         1 <0>         0.1345
     54 H20        -3.2237   -0.4350   -8.3806 H         1 <0>         0.4276
     55 H21        -0.9737   -0.8005   -9.1438 H         1 <0>         0.1396
     56 H22        -0.4224    0.1850   -7.7682 H         1 <0>         0.1336
     57 H23        -0.3004   -2.2245   -7.2185 H         1 <0>         0.1255
     58 H24        -2.0345   -2.4016   -7.5820 H         1 <0>         0.0978
     59 H25        -3.4116   -4.0505   -6.1853 H         1 <0>         0.4043
     60 H26        -1.5733   -5.4422   -7.8164 H         1 <0>         0.0881
     61 H27        -1.8477   -6.3972   -6.3395 H         1 <0>         0.0821
     62 H28        -2.6883   -7.2357   -9.2131 H         1 <0>         0.0900
     63 H29        -2.8663   -8.1818   -7.7150 H         1 <0>         0.0502
     64 H30        -6.4885   -8.6052   -8.1161 H         1 <0>         0.0918
     65 H31        -5.0981   -8.9861   -7.0707 H         1 <0>         0.0477
     66 H32        -6.2545   -6.2100   -7.5985 H         1 <0>         0.0611
     67 H33        -6.3984   -7.1415   -6.0877 H         1 <0>         0.1044
     68 H34        -3.9334   -9.9505   -9.0541 H         1 <0>         0.0318
     69 H35        -5.3840   -9.5569  -10.0075 H         1 <0>         0.0751
     70 H36        -3.7912   -8.9487  -10.5185 H         1 <0>         0.0735
     71 H37        -2.4695    0.9810   -8.7489 H         1 <0>         0.4344
@<TRIPOS>BOND
     1    1    2 1
     2    1   37 1
     3    1   38 1
     4    1   39 1
     5    2    7 ar
     6    2    3 ar
     7    3    4 ar
     8    3   12 1
     9    4    5 ar
    10    4   40 1
    11    5    6 ar
    12    5   41 1
    13    6    7 ar
    14    6   42 1
    15    7    8 1
    16    8    9 1
    17    9   10 2
    18    9   11 1
    19   11   43 1
    20   11   44 1
    21   11   45 1
    22   12   13 2
    23   12   14 am
    24   14   19 1
    25   14   15 1
    26   15   16 1
    27   15   46 1
    28   15   47 1
    29   16   17 1
    30   16   18 1
    31   16   25 1
    32   18   24 1
    33   18   19 1
    34   18   20 1
    35   19   48 1
    36   19   49 1
    37   20   21 1
    38   20   50 1
    39   20   51 1
    40   21   22 1
    41   21   52 1
    42   21   53 1
    43   22   23 1
    44   22   54 1
    45   22   71 1
    46   23   24 1
    47   23   55 1
    48   23   56 1
    49   24   57 1
    50   24   58 1
    51   25   26 2
    52   25   27 am
    53   27   28 1
    54   27   59 1
    55   28   29 1
    56   28   60 1
    57   28   61 1
    58   29   30 1
    59   29   35 1
    60   29   31 1
    61   31   32 1
    62   31   62 1
    63   31   63 1
    64   32   33 1
    65   32   36 1
    66   33   34 1
    67   33   64 1
    68   33   65 1
    69   34   35 1
    70   34   66 1
    71   34   67 1
    72   36   68 1
    73   36   69 1
    74   36   70 1
