@<TRIPOS>MOLECULE
ZINC03380535
   68    70     0     0     0
SMALL
USER_CHARGES

@<TRIPOS>ATOM
      1 C1         -1.1267    2.1037   -0.1391 C.3       1 <0>        -0.1533
      2 C2         -0.7184    0.6301   -0.0879 C.3       1 <0>         0.0561
      3 O1         -1.8897   -0.1882   -0.0644 O.3       1 <0>        -0.3445
      4 C3         -1.7031   -1.5232   -0.0187 C.2       1 <0>         0.5239
      5 O2         -0.5757   -1.9795    0.0008 O.2       1 <0>        -0.4864
      6 C4         -2.8579   -2.4234    0.0076 C.2       1 <0>        -0.1764
      7 C5         -3.4472   -2.9351   -1.2179 C.2       1 <0>        -0.0630
      8 C6         -4.5048   -3.7517   -1.0233 C.2       1 <0>        -0.1941
      9 S1         -4.6966   -3.8278    0.7334 S.3       1 <0>         0.3043
     10 C7         -3.4318   -2.8282    1.2037 C.2       1 <0>         0.0036
     11 N1         -3.0503   -2.4850    2.4913 N.am      1 <0>        -0.5921
     12 C8         -3.7277   -2.9754    3.5481 C.2       1 <0>         0.5011
     13 O3         -4.6712   -3.7170    3.3726 O.2       1 <0>        -0.4846
     14 C9         -3.3129   -2.6023    4.9481 C.3       1 <0>         0.0137
     15 H1         -3.1491   -1.5261    5.0038 H         1 <0>         0.1707
     16 C10        -2.0189   -3.3346    5.3088 C.3       1 <0>        -0.1886
     17 N2         -4.3719   -2.9858    5.8912 N.4       1 <0>        -0.3587
     18 C11        -5.5746   -2.1839    5.6296 C.3       1 <0>        -0.0669
     19 C12        -3.9132   -2.7466    7.2661 C.3       1 <0>        -0.0368
     20 C13        -4.9490   -3.2532    8.2365 C.2       1 <0>         0.5000
     21 O4         -5.9689   -3.7633    7.8233 O.2       1 <0>        -0.5085
     22 N3         -4.7420   -3.1394    9.5634 N.am      1 <0>        -0.6373
     23 C14        -5.7483   -3.5128   10.4639 C.ar      1 <0>         0.0714
     24 C15        -5.9242   -2.8011   11.6431 C.ar      1 <0>        -0.0861
     25 C16        -6.9165   -3.1694   12.5300 C.ar      1 <0>        -0.1341
     26 C17        -7.7372   -4.2504   12.2433 C.ar      1 <0>         0.1375
     27 C18        -7.5618   -4.9621   11.0656 C.ar      1 <0>        -0.1940
     28 C19        -6.5739   -4.5911   10.1749 C.ar      1 <0>        -0.0688
     29 O5         -8.7138   -4.6127   13.1172 O.3       1 <0>        -0.3117
     30 C20        -9.5218   -5.7354   12.7582 C.3       1 <0>         0.0235
     31 C21        -5.3220   -4.4319   -2.0779 C.3       1 <0>        -0.0365
     32 C22        -5.0171   -3.7667   -3.4281 C.3       1 <0>        -0.0864
     33 H2         -5.4642   -2.7730   -3.4548 H         1 <0>         0.0786
     34 C23        -3.4989   -3.6505   -3.5917 C.3       1 <0>        -0.1163
     35 C24        -2.9485   -2.6066   -2.6174 C.3       1 <0>        -0.0646
     36 C25        -5.5934   -4.6186   -4.5609 C.3       1 <0>        -0.1498
     37 H3         -0.2332    2.7279   -0.1570 H         1 <0>         0.0849
     38 H4         -1.7157    2.2865   -1.0379 H         1 <0>         0.0704
     39 H5         -1.7220    2.3466    0.7411 H         1 <0>         0.0651
     40 H6         -0.1231    0.3872   -0.9681 H         1 <0>         0.0733
     41 H7         -0.1294    0.4473    0.8109 H         1 <0>         0.0678
     42 H8         -2.2958   -1.8919    2.6317 H         1 <0>         0.4248
     43 H9         -2.1828   -4.4107    5.2531 H         1 <0>         0.0971
     44 H10        -1.2332   -3.0500    4.6090 H         1 <0>         0.1162
     45 H11        -1.7189   -3.0647    6.3214 H         1 <0>         0.1053
     46 H12        -5.3137   -1.1256    5.6346 H         1 <0>         0.1212
     47 H13        -5.9856   -2.4522    4.6564 H         1 <0>         0.1349
     48 H14        -6.3167   -2.3788    6.4038 H         1 <0>         0.1473
     49 H15        -2.9725   -3.2716    7.4319 H         1 <0>         0.1678
     50 H16        -3.7645   -1.6776    7.4187 H         1 <0>         0.1676
     51 H17        -3.8964   -2.7989    9.8949 H         1 <0>         0.4195
     52 H18        -5.2849   -1.9599   11.8667 H         1 <0>         0.1373
     53 H19        -7.0534   -2.6159   13.4472 H         1 <0>         0.1429
     54 H20        -8.2006   -5.8041   10.8433 H         1 <0>         0.1374
     55 H21        -6.4405   -5.1423    9.2558 H         1 <0>         0.1407
     56 H22       -10.0323   -5.5295   11.8174 H         1 <0>         0.0590
     57 H23        -8.8898   -6.6160   12.6436 H         1 <0>         0.0594
     58 H24       -10.2596   -5.9168   13.5398 H         1 <0>         0.1073
     59 H25        -5.0593   -5.4889   -2.1214 H         1 <0>         0.0900
     60 H26        -6.3819   -4.3254   -1.8469 H         1 <0>         0.0870
     61 H27        -3.0376   -4.6165   -3.3861 H         1 <0>         0.0697
     62 H28        -3.2668   -3.3500   -4.6135 H         1 <0>         0.0773
     63 H29        -3.2983   -1.6157   -2.9070 H         1 <0>         0.0851
     64 H30        -1.8589   -2.6312   -2.6324 H         1 <0>         0.0775
     65 H31        -6.6726   -4.7071   -4.4360 H         1 <0>         0.0600
     66 H32        -5.3761   -4.1451   -5.5183 H         1 <0>         0.0620
     67 H33        -5.1421   -5.6104   -4.5353 H         1 <0>         0.0588
     68 H34        -4.5881   -3.9644    5.7743 H         1 <0>         0.4404
@<TRIPOS>BOND
     1    1    2 1
     2    1   37 1
     3    1   38 1
     4    1   39 1
     5    2    3 1
     6    2   40 1
     7    2   41 1
     8    3    4 1
     9    4    5 2
    10    4    6 1
    11    6   10 2
    12    6    7 1
    13    7   35 1
    14    7    8 2
    15    8    9 1
    16    8   31 1
    17    9   10 1
    18   10   11 1
    19   11   12 am
    20   11   42 1
    21   12   13 2
    22   12   14 1
    23   14   15 1
    24   14   16 1
    25   14   17 1
    26   16   43 1
    27   16   44 1
    28   16   45 1
    29   17   18 1
    30   17   19 1
    31   17   68 1
    32   18   46 1
    33   18   47 1
    34   18   48 1
    35   19   20 1
    36   19   49 1
    37   19   50 1
    38   20   21 2
    39   20   22 am
    40   22   23 1
    41   22   51 1
    42   23   28 ar
    43   23   24 ar
    44   24   25 ar
    45   24   52 1
    46   25   26 ar
    47   25   53 1
    48   26   27 ar
    49   26   29 1
    50   27   28 ar
    51   27   54 1
    52   28   55 1
    53   29   30 1
    54   30   56 1
    55   30   57 1
    56   30   58 1
    57   31   32 1
    58   31   59 1
    59   31   60 1
    60   32   33 1
    61   32   34 1
    62   32   36 1
    63   34   35 1
    64   34   61 1
    65   34   62 1
    66   35   63 1
    67   35   64 1
    68   36   65 1
    69   36   66 1
    70   36   67 1
