@<TRIPOS>MOLECULE
ZINC65967861
   50    53     0     0     0
SMALL
USER_CHARGES

@<TRIPOS>ATOM
      1 C1         -0.0175    1.4408    0.0100 C.2       1 <0>        -0.1064
      2 C2          1.1856    2.0439    0.0017 C.2       1 <0>        -0.2372
      3 S1          2.3276    0.6794   -0.0165 S.3       1 <0>         0.2896
      4 C3          1.2511   -0.6074   -0.0131 C.2       1 <0>         0.0602
      5 C4          0.0021   -0.0041    0.0020 C.2       1 <0>        -0.2526
      6 C5         -1.2345   -0.7918    0.0096 C.2       1 <0>         0.5915
      7 O1         -1.1815   -2.0078    0.0030 O.2       1 <0>        -0.5703
      8 N1         -2.4299   -0.1695    0.0238 N.am      1 <0>        -0.8435
      9 N2          1.5429   -1.9630   -0.0232 N.am      1 <0>        -0.6018
     10 C6          2.8257   -2.3760   -0.0372 C.2       1 <0>         0.5119
     11 O2          3.7249   -1.5621   -0.0409 O.2       1 <0>        -0.4975
     12 C7          3.1429   -3.8492   -0.0481 C.3       1 <0>        -0.1685
     13 C8          4.6604   -4.0442   -0.0630 C.3       1 <0>        -0.0016
     14 N3          4.9695   -5.4802   -0.0737 N.4       1 <0>        -0.3565
     15 C9          4.3509   -6.0591   -1.2290 C.3       1 <0>        -0.0133
     16 C10         4.9411   -7.3524   -1.6987 C.3       1 <0>        -0.1060
     17 C11         5.2951   -8.3229   -0.5926 C.3       1 <0>        -0.1151
     18 C12         6.6780   -8.1079   -0.0028 C.3       1 <0>        -0.0982
     19 C13         7.7331   -7.9989   -1.1062 C.3       1 <0>        -0.1146
     20 C14         7.3445   -6.8355   -2.0198 C.3       1 <0>        -0.0923
     21 C15         6.0362   -7.1981   -2.7296 C.3       1 <0>        -0.1152
     22 C16         7.1813   -5.5458   -1.2440 C.3       1 <0>        -0.1170
     23 C17         6.3970   -5.6301    0.0317 C.3       1 <0>         0.0271
     24 C18         6.7473   -6.8576    0.8671 C.3       1 <0>        -0.1295
     25 H1         -0.9402    2.0018    0.0261 H         1 <0>         0.1479
     26 H2          1.4051    3.1013    0.0050 H         1 <0>         0.1947
     27 H3         -2.4722    0.7996    0.0291 H         1 <0>         0.4046
     28 H4         -3.2480   -0.6906    0.0289 H         1 <0>         0.4082
     29 H5          0.8238   -2.6139   -0.0202 H         1 <0>         0.4359
     30 H6          2.7252   -4.3175    0.8432 H         1 <0>         0.1269
     31 H7          2.7089   -4.3077   -0.9367 H         1 <0>         0.1258
     32 H8          5.0781   -3.5759   -0.9543 H         1 <0>         0.1421
     33 H9          5.0943   -3.5857    0.8255 H         1 <0>         0.1447
     34 H10         3.2973   -6.2260   -1.0048 H         1 <0>         0.1289
     35 H11         4.4115   -5.3396   -2.0455 H         1 <0>         0.1260
     36 H12         4.1299   -7.8457   -2.2342 H         1 <0>         0.0980
     37 H13         4.5583   -8.2247    0.2047 H         1 <0>         0.0661
     38 H14         5.2403   -9.3367   -0.9891 H         1 <0>         0.0887
     39 H15         6.9269   -8.9708    0.6148 H         1 <0>         0.0893
     40 H16         8.7108   -7.8088   -0.6633 H         1 <0>         0.0754
     41 H17         7.7621   -8.9247   -1.6808 H         1 <0>         0.0786
     42 H18         8.1258   -6.6945   -2.7666 H         1 <0>         0.0905
     43 H19         6.1626   -8.1361   -3.2702 H         1 <0>         0.0871
     44 H20         5.7693   -6.4059   -3.4291 H         1 <0>         0.0743
     45 H21         8.1750   -5.1667   -1.0055 H         1 <0>         0.1050
     46 H22         6.6928   -4.8198   -1.8938 H         1 <0>         0.0791
     47 H23         6.7325   -4.7872    0.6360 H         1 <0>         0.1228
     48 H24         6.0397   -6.9494    1.6911 H         1 <0>         0.0843
     49 H25         7.7557   -6.7489    1.2663 H         1 <0>         0.1123
     50 H26         4.5502   -5.8941    0.7455 H         1 <0>         0.4195
@<TRIPOS>BOND
     1    1    5 1
     2    1    2 2
     3    1   25 1
     4    2    3 1
     5    2   26 1
     6    3    4 1
     7    4    5 2
     8    4    9 1
     9    5    6 1
    10    6    7 2
    11    6    8 am
    12    8   27 1
    13    8   28 1
    14    9   10 am
    15    9   29 1
    16   10   11 2
    17   10   12 1
    18   12   13 1
    19   12   30 1
    20   12   31 1
    21   13   14 1
    22   13   32 1
    23   13   33 1
    24   14   23 1
    25   14   15 1
    26   14   50 1
    27   15   16 1
    28   15   34 1
    29   15   35 1
    30   16   21 1
    31   16   17 1
    32   16   36 1
    33   17   18 1
    34   17   37 1
    35   17   38 1
    36   18   24 1
    37   18   19 1
    38   18   39 1
    39   19   20 1
    40   19   40 1
    41   19   41 1
    42   20   21 1
    43   20   22 1
    44   20   42 1
    45   21   43 1
    46   21   44 1
    47   22   23 1
    48   22   45 1
    49   22   46 1
    50   23   24 1
    51   23   47 1
    52   24   48 1
    53   24   49 1
