@<TRIPOS>MOLECULE
ZINC09331908
   63    69     0     0     0
SMALL
USER_CHARGES
methyl-(3-nitrobenzoyl)-BLAHdione
@<TRIPOS>ATOM
      1 C1         -3.8329   10.0714    3.4716 C.3       1 <0>        -0.1255
      2 C2         -2.4865    9.7617    2.8697 C.ar      1 <0>        -0.0847
      3 C3         -1.4180   10.6019    3.1060 C.ar      1 <0>        -0.0498
      4 C4         -0.1787   10.3269    2.5581 C.ar      1 <0>        -0.1172
      5 C5         -0.0094    9.2026    1.7687 C.ar      1 <0>        -0.0598
      6 C6         -1.0732    8.3621    1.5306 C.ar      1 <0>        -0.2060
      7 C7         -2.3248    8.6286    2.0764 C.ar      1 <0>         0.1580
      8 N1         -3.2367    7.6414    1.6978 N.am      1 <0>        -0.6393
      9 C8         -2.6734    6.7023    0.9151 C.2       1 <0>         0.5382
     10 O1         -3.2235    5.7307    0.4414 O.2       1 <0>        -0.4468
     11 C9         -1.2279    7.0905    0.7403 C.3       1 <0>         0.0898
     12 C10        -0.2956    5.9969    1.2703 C.3       1 <0>        -0.0855
     13 H1         -0.8163    5.3636    1.8429 H         1 <0>         0.1297
     14 C11         0.2692    5.3112    0.0209 C.3       1 <0>        -0.0440
     15 C12        -0.0539    3.8423    0.0118 C.ar      1 <0>        -0.1602
     16 C13        -1.2343    3.1333    0.0192 C.ar      1 <0>        -0.0609
     17 C14        -1.2108    1.7500    0.0007 C.ar      1 <0>        -0.1293
     18 C15         0.0002    1.0824   -0.0146 C.ar      1 <0>        -0.0594
     19 C16         1.1851    1.7886   -0.0219 C.ar      1 <0>        -0.1287
     20 C17         1.1703    3.1816   -0.0092 C.ar      1 <0>         0.1554
     21 N2          2.2175    4.1054   -0.0145 N.am      1 <0>        -0.6500
     22 C18         1.7740    5.3764    0.0011 C.2       1 <0>         0.5177
     23 O2          2.4547    6.3803   -0.0002 O.2       1 <0>        -0.4360
     24 C19        -0.3368    6.0283   -1.1824 C.3       1 <0>         0.0536
     25 H2          0.4088    6.2018   -1.9584 H         1 <0>         0.1651
     26 C20        -2.1494    7.5734   -1.4313 C.3       1 <0>        -0.0168
     27 C21        -2.3881    6.3750   -2.3726 C.3       1 <0>        -0.1337
     28 C22        -1.5549    5.2414   -1.7173 C.3       1 <0>        -0.1568
     29 C23         0.8188    6.6073    2.0806 C.2       1 <0>         0.3718
     30 O3          1.5901    7.3855    1.5613 O.2       1 <0>        -0.3619
     31 C24         0.9708    6.2589    3.5024 C.ar      1 <0>        -0.1639
     32 C25         0.0796    5.3662    4.1066 C.ar      1 <0>        -0.0341
     33 C26         0.2310    5.0418    5.4380 C.ar      1 <0>        -0.1169
     34 C27         1.2562    5.6043    6.1788 C.ar      1 <0>        -0.0165
     35 C28         2.1391    6.4920    5.5895 C.ar      1 <0>        -0.0465
     36 C29         2.0035    6.8232    4.2577 C.ar      1 <0>         0.0059
     37 N3          3.2315    7.0881    6.3908 N.pl3     1 <0>         0.0205
     38 O4          4.0093    7.8700    5.8738 O.2       1 <0>        -0.1441
     39 O5          3.3527    6.7968    7.5673 O.3       1 <0>        -0.1391
     40 H3         -4.4042   10.6941    2.7831 H         1 <0>         0.0840
     41 H4         -4.3722    9.1417    3.6534 H         1 <0>         0.0673
     42 H5         -3.6964   10.6023    4.4137 H         1 <0>         0.0849
     43 H6         -1.5502   11.4788    3.7225 H         1 <0>         0.1494
     44 H7          0.6549   10.9873    2.7457 H         1 <0>         0.1493
     45 H8          0.9573    8.9850    1.3392 H         1 <0>         0.1689
     46 H9         -4.1685    7.6335    1.9673 H         1 <0>         0.4362
     47 H10        -2.1786    3.6572    0.0359 H         1 <0>         0.1457
     48 H11        -2.1361    1.1928    0.0019 H         1 <0>         0.1419
     49 H12         0.0184    0.0026   -0.0254 H         1 <0>         0.1435
     50 H13         2.1269    1.2602   -0.0373 H         1 <0>         0.1379
     51 H14         3.1558    3.8597   -0.0275 H         1 <0>         0.4278
     52 H15        -2.9860    7.6733   -0.7398 H         1 <0>         0.1224
     53 H16        -2.0399    8.4880   -2.0141 H         1 <0>         0.1476
     54 H17        -3.4451    6.1103   -2.3986 H         1 <0>         0.1187
     55 H18        -2.0226    6.5946   -3.3758 H         1 <0>         0.1061
     56 H19        -1.2489    4.5024   -2.4578 H         1 <0>         0.1233
     57 H20        -2.1058    4.7716   -0.9025 H         1 <0>         0.1367
     58 H21        -0.7230    4.9294    3.5308 H         1 <0>         0.1435
     59 H22        -0.4540    4.3498    5.9050 H         1 <0>         0.1618
     60 H23         1.3673    5.3492    7.2224 H         1 <0>         0.1672
     61 H24         2.6929    7.5168    3.7993 H         1 <0>         0.1676
     62 N4         -0.9125    7.2759   -0.6758 N.4       1 <0>        -0.3676
     63 H25        -0.2426    8.0459   -0.7878 H         1 <0>         0.4436
@<TRIPOS>BOND
     1    1    2 1
     2    1   40 1
     3    1   41 1
     4    1   42 1
     5    2    7 ar
     6    2    3 ar
     7    3    4 ar
     8    3   43 1
     9    4    5 ar
    10    4   44 1
    11    5    6 ar
    12    5   45 1
    13    6   11 1
    14    6    7 ar
    15    7    8 1
    16    8    9 am
    17    8   46 1
    18    9   10 2
    19    9   11 1
    20   11   12 1
    21   11   62 1
    22   12   13 1
    23   12   14 1
    24   12   29 1
    25   14   22 1
    26   14   15 1
    27   14   24 1
    28   15   20 ar
    29   15   16 ar
    30   16   17 ar
    31   16   47 1
    32   17   18 ar
    33   17   48 1
    34   18   19 ar
    35   18   49 1
    36   19   20 ar
    37   19   50 1
    38   20   21 1
    39   21   22 am
    40   21   51 1
    41   22   23 2
    42   24   25 1
    43   24   28 1
    44   24   62 1
    45   26   27 1
    46   26   52 1
    47   26   53 1
    48   26   62 1
    49   27   28 1
    50   27   54 1
    51   27   55 1
    52   28   56 1
    53   28   57 1
    54   29   30 2
    55   29   31 1
    56   31   36 ar
    57   31   32 ar
    58   32   33 ar
    59   32   58 1
    60   33   34 ar
    61   33   59 1
    62   34   35 ar
    63   34   60 1
    64   35   36 ar
    65   35   37 1
    66   36   61 1
    67   37   38 2
    68   37   39 1
    69   62   63 1
