@<TRIPOS>MOLECULE
ZINC16692595
   49    50     0     0     0
SMALL
USER_CHARGES
2-[(3-chloro-4-ethoxy-phenyl)sulfonyl-methyl-amino]-N-(2-methyl-5-nitro-phenyl)acetamide
@<TRIPOS>ATOM
      1 C1          3.7511   -0.8661   -0.0584 C.3       1 <0>        -0.1529
      2 C2          2.3298   -0.3004   -0.0320 C.3       1 <0>         0.0499
      3 O1          2.3855    1.1275   -0.0281 O.3       1 <0>        -0.2882
      4 C3          1.1995    1.7913   -0.0054 C.ar      1 <0>         0.2084
      5 C4          0.0071    1.0830    0.0126 C.ar      1 <0>        -0.2193
      6 C5         -1.1972    1.7598    0.0294 C.ar      1 <0>         0.0290
      7 C6         -1.2149    3.1424    0.0393 C.ar      1 <0>        -0.6996
      8 C7         -0.0284    3.8516    0.0218 C.ar      1 <0>         0.0274
      9 C8          1.1795    3.1793   -0.0008 C.ar      1 <0>        -0.0803
     10 Cl1         2.6695    4.0699   -0.0239 Cl        1 <0>        -0.0421
     11 S1         -2.7528    4.0019    0.0675 S.o2      1 <0>         2.6958
     12 O2         -3.7056    3.1112    0.6315 O.2       1 <0>        -0.9443
     13 O3         -2.4907    5.2854    0.6181 O.2       1 <0>        -0.9530
     14 N1         -3.2064    4.2457   -1.5064 N.pl3     1 <0>        -0.9816
     15 C9         -4.0259    3.2460   -2.1957 C.3       1 <0>         0.0937
     16 C10        -2.7882    5.4611   -2.2094 C.3       1 <0>         0.0979
     17 C11        -1.5311    5.1812   -2.9921 C.2       1 <0>         0.4823
     18 O4         -1.0336    4.0754   -2.9653 O.2       1 <0>        -0.4898
     19 N2         -0.9598    6.1598   -3.7219 N.am      1 <0>        -0.6657
     20 C12         0.2673    5.9345   -4.3553 C.ar      1 <0>         0.1511
     21 C13         1.1364    4.9683   -3.8652 C.ar      1 <0>        -0.0695
     22 C14         2.3445    4.7447   -4.4958 C.ar      1 <0>        -0.0273
     23 C15         2.6939    5.4891   -5.6078 C.ar      1 <0>        -0.0711
     24 C16         1.8335    6.4556   -6.0947 C.ar      1 <0>        -0.0970
     25 C17         0.6213    6.6804   -5.4717 C.ar      1 <0>        -0.0659
     26 C18        -0.3162    7.7338   -6.0033 C.3       1 <0>        -0.1250
     27 N3          3.2688    3.7114   -3.9776 N.pl3     1 <0>         0.0248
     28 O5          4.3366    3.5169   -4.5305 O.2       1 <0>        -0.1704
     29 O6          2.9618    3.0555   -2.9983 O.3       1 <0>        -0.1308
     30 H1          4.2939   -0.5262    0.8236 H         1 <0>         0.0679
     31 H2          3.7086   -1.9553   -0.0614 H         1 <0>         0.0806
     32 H3          4.2633   -0.5200   -0.9561 H         1 <0>         0.0720
     33 H4          1.8175   -0.6465    0.8657 H         1 <0>         0.0663
     34 H5          1.7869   -0.6404   -0.9140 H         1 <0>         0.0680
     35 H6          0.0200    0.0030    0.0091 H         1 <0>         0.1456
     36 H7         -2.1257    1.2083    0.0385 H         1 <0>         0.1453
     37 H8         -0.0450    4.9314    0.0255 H         1 <0>         0.1447
     38 H9         -5.0810    3.4760   -2.0472 H         1 <0>         0.0682
     39 H10        -3.7973    3.2610   -3.2614 H         1 <0>         0.0754
     40 H11        -3.8092    2.2572   -1.7915 H         1 <0>         0.0767
     41 H12        -3.5780    5.7765   -2.8911 H         1 <0>         0.1262
     42 H13        -2.5963    6.2522   -1.4846 H         1 <0>         0.1330
     43 H14        -1.3994    7.0202   -3.8080 H         1 <0>         0.4196
     44 H15         0.8659    4.3896   -2.9944 H         1 <0>         0.1750
     45 H16         3.6411    5.3152   -6.0968 H         1 <0>         0.1545
     46 H17         2.1095    7.0357   -6.9629 H         1 <0>         0.1522
     47 H18        -0.1001    8.6882   -5.5233 H         1 <0>         0.0861
     48 H19        -0.1811    7.8300   -7.0806 H         1 <0>         0.0837
     49 H20        -1.3455    7.4449   -5.7906 H         1 <0>         0.0723
@<TRIPOS>BOND
     1    1    2 1
     2    1   30 1
     3    1   31 1
     4    1   32 1
     5    2    3 1
     6    2   33 1
     7    2   34 1
     8    3    4 1
     9    4    9 ar
    10    4    5 ar
    11    5    6 ar
    12    5   35 1
    13    6    7 ar
    14    6   36 1
    15    7    8 ar
    16    7   11 1
    17    8    9 ar
    18    8   37 1
    19    9   10 1
    20   11   12 2
    21   11   13 2
    22   11   14 1
    23   14   15 1
    24   14   16 1
    25   15   38 1
    26   15   39 1
    27   15   40 1
    28   16   17 1
    29   16   41 1
    30   16   42 1
    31   17   18 2
    32   17   19 am
    33   19   20 1
    34   19   43 1
    35   20   25 ar
    36   20   21 ar
    37   21   22 ar
    38   21   44 1
    39   22   23 ar
    40   22   27 1
    41   23   24 ar
    42   23   45 1
    43   24   25 ar
    44   24   46 1
    45   25   26 1
    46   26   47 1
    47   26   48 1
    48   26   49 1
    49   27   28 2
    50   27   29 1
