@<TRIPOS>MOLECULE
ZINC05353693
   30    31     0     0     0
SMALL
USER_CHARGES
1-methyl-2-(phenylsulfonylmethylene)pyridine
@<TRIPOS>ATOM
      1 C1         -0.0747    1.0732   -0.0471 C.3       1 <0>         0.0764
      2 N1         -0.6058    1.5776    1.2216 N.pl3     1 <0>        -0.5314
      3 C2         -0.9984    0.7212    2.2284 C.2       1 <0>         0.1167
      4 C3         -1.0008    1.1475    3.5046 C.2       1 <0>        -0.2220
      5 C4         -0.6468    2.4738    3.8350 C.2       1 <0>        -0.0398
      6 C5         -0.4920    3.3952    2.8510 C.2       1 <0>        -0.1937
      7 C6         -0.7315    2.9523    1.4672 C.2       1 <0>         0.3169
      8 C7         -1.0570    3.8223    0.4921 C.2       1 <0>        -0.8477
      9 S1         -1.3786    5.5090    0.8876 S.o2      1 <0>         2.5926
     10 O1         -2.2737    5.9950   -0.1032 O.2       1 <0>        -0.9482
     11 O2         -1.6829    5.5499    2.2751 O.2       1 <0>        -0.9465
     12 C8          0.1324    6.3906    0.6773 C.ar      1 <0>        -0.6586
     13 C9          1.0065    6.5273    1.7395 C.ar      1 <0>        -0.0277
     14 C10         2.1939    7.2153    1.5733 C.ar      1 <0>        -0.1401
     15 C11         2.5031    7.7743    0.3474 C.ar      1 <0>        -0.0681
     16 C12         1.6266    7.6420   -0.7133 C.ar      1 <0>        -0.1397
     17 C13         0.4412    6.9504   -0.5483 C.ar      1 <0>        -0.0246
     18 H1         -0.0581   -0.0165   -0.0265 H         1 <0>         0.0905
     19 H2          0.9380    1.4493   -0.1922 H         1 <0>         0.0772
     20 H3         -0.7088    1.4115   -0.8666 H         1 <0>         0.0763
     21 H4         -1.3033   -0.2879    1.9934 H         1 <0>         0.1618
     22 H5         -1.2784    0.4618    4.2915 H         1 <0>         0.1413
     23 H6         -0.4995    2.7540    4.8676 H         1 <0>         0.1374
     24 H7         -0.2016    4.4114    3.0732 H         1 <0>         0.1642
     25 H8         -1.1210    3.4862   -0.5323 H         1 <0>         0.1602
     26 H9          0.7632    6.0938    2.6983 H         1 <0>         0.1387
     27 H10         2.8788    7.3183    2.4020 H         1 <0>         0.1328
     28 H11         3.4296    8.3140    0.2183 H         1 <0>         0.1307
     29 H12         1.8682    8.0788   -1.6711 H         1 <0>         0.1331
     30 H13        -0.2436    6.8471   -1.3771 H         1 <0>         0.1412
@<TRIPOS>BOND
     1    1    2 1
     2    1   18 1
     3    1   19 1
     4    1   20 1
     5    2    7 1
     6    2    3 1
     7    3    4 2
     8    3   21 1
     9    4    5 1
    10    4   22 1
    11    5    6 2
    12    5   23 1
    13    6    7 1
    14    6   24 1
    15    7    8 2
    16    8    9 1
    17    8   25 1
    18    9   10 2
    19    9   11 2
    20    9   12 1
    21   12   17 ar
    22   12   13 ar
    23   13   14 ar
    24   13   26 1
    25   14   15 ar
    26   14   27 1
    27   15   16 ar
    28   15   28 1
    29   16   17 ar
    30   16   29 1
    31   17   30 1
