@<TRIPOS>MOLECULE
ZINC63708292
   66    70     0     0     0
SMALL
USER_CHARGES

@<TRIPOS>ATOM
      1 C1          0.0251    1.5032    0.0055 C.3       1 <0>        -0.1237
      2 C2          0.0340   -0.0037   -0.0015 C.ar      1 <0>        -0.0716
      3 C3          0.6317   -0.6854   -1.0460 C.ar      1 <0>        -0.1086
      4 C4          0.6415   -2.0662   -1.0554 C.ar      1 <0>        -0.1065
      5 C5          0.0507   -2.7705   -0.0142 C.ar      1 <0>         0.1077
      6 C6         -0.5482   -2.0832    1.0331 C.ar      1 <0>        -0.0946
      7 C7         -0.5504   -0.7019    1.0390 C.ar      1 <0>        -0.1032
      8 C8         -1.1904   -2.8434    2.1648 C.3       1 <0>        -0.1171
      9 N1          0.0586   -4.1697   -0.0209 N.am      1 <0>        -0.6495
     10 C9         -0.0404   -4.8386   -1.1868 C.2       1 <0>         0.5241
     11 O1         -0.0541   -4.2300   -2.2358 O.2       1 <0>        -0.4877
     12 C10        -0.1340   -6.3427   -1.1871 C.3       1 <0>        -0.1554
     13 S1         -0.2552   -6.9407   -2.8954 S.3       1 <0>        -0.0369
     14 C11        -0.3589   -8.7435   -2.7229 C.3       1 <0>         0.3559
     15 H1         -0.4342   -9.1596   -3.7275 H         1 <0>         0.1868
     16 N2         -1.6136   -9.0486   -2.0236 N.pl3     1 <0>        -0.6381
     17 C12        -1.5811   -9.7339   -0.8890 C.ar      1 <0>         0.3315
     18 C13        -2.7751  -10.0387   -0.1995 C.ar      1 <0>        -0.1987
     19 C14        -2.7193  -10.7431    0.9623 C.ar      1 <0>         0.0607
     20 C15        -1.5080  -11.1759    1.4956 C.ar      1 <0>        -0.1384
     21 C16        -0.3222  -10.9141    0.8798 C.ar      1 <0>        -0.0170
     22 C17        -0.3070  -10.1909   -0.3250 C.ar      1 <0>        -0.2054
     23 C18         0.9103   -9.9111   -0.9775 C.2       1 <0>         0.4808
     24 N3          0.9055   -9.2037   -2.1501 N.pl3     1 <0>        -0.3812
     25 N4          2.2436   -9.0881   -2.5464 N.pl3     1 <0>        -0.3536
     26 C19         2.9794   -9.7212   -1.6059 C.cat     1 <0>         0.5171
     27 N5          2.1835  -10.2041   -0.6868 N.pl3     1 <0>        -0.5227
     28 C20         4.4806   -9.8533   -1.6161 C.3       1 <0>        -0.1013
     29 C21         5.1021   -8.6654   -0.8787 C.3       1 <0>        -0.0452
     30 C22         6.6032   -8.7975   -0.8889 C.2       1 <0>        -0.1879
     31 C23         7.4712   -8.2502   -1.7426 C.2       1 <0>         0.0187
     32 N6          8.7385   -8.5992   -1.4285 N.2       1 <0>        -0.1634
     33 N7          8.8379   -9.3337   -0.4426 N.2       1 <0>        -0.1161
     34 C24         7.4803   -9.5787    0.0734 C.3       1 <0>        -0.0365
     35 H2          7.3764   -9.1947    1.0882 H         1 <0>         0.1547
     36 C25         7.1456  -11.0708    0.0210 C.3       1 <0>        -0.1181
     37 C26         7.0897   -7.3634   -2.8998 C.3       1 <0>        -0.1017
     38 H3          0.9181    1.8695    0.5119 H         1 <0>         0.0779
     39 H4          0.0124    1.8713   -1.0204 H         1 <0>         0.0723
     40 H5         -0.8618    1.8589    0.5300 H         1 <0>         0.0724
     41 H6          1.0909   -0.1372   -1.8553 H         1 <0>         0.1313
     42 H7          1.1078   -2.5980   -1.8716 H         1 <0>         0.1350
     43 H8         -1.0125   -0.1666    1.8554 H         1 <0>         0.1336
     44 H9         -0.4523   -3.0237    2.9464 H         1 <0>         0.0746
     45 H10        -2.0158   -2.2596    2.5723 H         1 <0>         0.0795
     46 H11        -1.5676   -3.7965    1.7943 H         1 <0>         0.0567
     47 H12         0.1353   -4.6583    0.8135 H         1 <0>         0.4106
     48 H13         0.7558   -6.7622   -0.7176 H         1 <0>         0.1106
     49 H14        -1.0186   -6.6518   -0.6303 H         1 <0>         0.1310
     50 H15        -3.7271   -9.7139   -0.5924 H         1 <0>         0.1739
     51 H16        -3.6367  -10.9721    1.4842 H         1 <0>         0.1696
     52 H17        -1.5090  -11.7327    2.4210 H         1 <0>         0.1650
     53 H18         0.6031  -11.2613    1.3153 H         1 <0>         0.1536
     54 H19         2.5770   -8.6417   -3.3404 H         1 <0>         0.5090
     55 H20         4.7672  -10.7799   -1.1189 H         1 <0>         0.1643
     56 H21         4.8370   -9.8683   -2.6461 H         1 <0>         0.1626
     57 H22         4.8155   -7.7388   -1.3760 H         1 <0>         0.1047
     58 H23         4.7457   -8.6504    0.1513 H         1 <0>         0.1053
     59 H24         7.3112  -11.4450   -0.9892 H         1 <0>         0.0689
     60 H25         7.7857  -11.6114    0.7182 H         1 <0>         0.0915
     61 H26         6.1015  -11.2188    0.2968 H         1 <0>         0.0661
     62 H27         7.0745   -6.3241   -2.5715 H         1 <0>         0.0921
     63 H28         7.8178   -7.4803   -3.7025 H         1 <0>         0.0946
     64 H29         6.1009   -7.6444   -3.2624 H         1 <0>         0.0694
     65 H30        -2.4610   -8.7508   -2.3897 H         1 <0>         0.4723
     66 H31         2.4745  -10.7006    0.0940 H         1 <0>         0.4934
@<TRIPOS>BOND
     1    1    2 1
     2    1   38 1
     3    1   39 1
     4    1   40 1
     5    2    7 ar
     6    2    3 ar
     7    3    4 ar
     8    3   41 1
     9    4    5 ar
    10    4   42 1
    11    5    6 ar
    12    5    9 1
    13    6    7 ar
    14    6    8 1
    15    7   43 1
    16    8   44 1
    17    8   45 1
    18    8   46 1
    19    9   10 am
    20    9   47 1
    21   10   11 2
    22   10   12 1
    23   12   13 1
    24   12   48 1
    25   12   49 1
    26   13   14 1
    27   14   15 1
    28   14   24 1
    29   14   16 1
    30   16   17 2
    31   16   65 1
    32   17   22 ar
    33   17   18 ar
    34   18   19 ar
    35   18   50 1
    36   19   20 ar
    37   19   51 1
    38   20   21 ar
    39   20   52 1
    40   21   22 ar
    41   21   53 1
    42   22   23 2
    43   23   27 1
    44   23   24 1
    45   24   25 1
    46   25   26 1
    47   25   54 1
    48   26   27 2
    49   26   28 1
    50   27   66 1
    51   28   29 1
    52   28   55 1
    53   28   56 1
    54   29   30 1
    55   29   57 1
    56   29   58 1
    57   30   34 1
    58   30   31 2
    59   31   32 1
    60   31   37 1
    61   32   33 2
    62   33   34 1
    63   34   35 1
    64   34   36 1
    65   36   59 1
    66   36   60 1
    67   36   61 1
    68   37   62 1
    69   37   63 1
    70   37   64 1
