@<TRIPOS>MOLECULE
ZINC50680484
   50    51     0     0     0
SMALL
USER_CHARGES

@<TRIPOS>ATOM
      1 C1         -0.0125    1.4932    0.0042 C.3       1 <0>        -0.1161
      2 C2          0.0132   -0.0136    0.0019 C.ar      1 <0>        -0.1182
      3 C3          0.0248   -0.6993   -1.1920 C.ar      1 <0>        -0.0402
      4 C4          0.0487   -2.0965   -1.1932 C.ar      1 <0>        -0.1471
      5 C5          0.0607   -2.7931    0.0185 C.ar      1 <0>        -0.0726
      6 C6          0.0491   -2.1014    1.2085 C.ar      1 <0>        -0.1247
      7 C7          0.0310   -0.7100    1.2061 C.ar      1 <0>         0.1682
      8 N1          0.0250   -0.0123    2.4133 N.am      1 <0>        -0.6714
      9 C8         -0.6322   -0.5133    3.4780 C.2       1 <0>         0.5142
     10 O1         -1.1486   -1.6086    3.4113 O.2       1 <0>        -0.5103
     11 C9         -0.7253    0.2874    4.7512 C.3       1 <0>        -0.1391
     12 C10        -1.5176   -0.5034    5.7942 C.3       1 <0>        -0.1068
     13 C11        -1.6122    0.3096    7.0869 C.3       1 <0>         0.0920
     14 H1         -0.6179    0.5825    7.4405 H         1 <0>         0.1341
     15 C12        -2.3624   -0.4663    8.1513 C.2       1 <0>         0.5294
     16 O2         -2.0493   -1.5315    8.6383 O.2       1 <0>        -0.4582
     17 N2         -3.4494    0.2745    8.4440 N.am      1 <0>        -0.6792
     18 C13        -3.4899    1.3989    7.7202 C.2       1 <0>         0.7043
     19 O3         -4.3749    2.2274    7.8078 O.2       1 <0>        -0.5379
     20 N3         -2.4382    1.5123    6.8835 N.am      1 <0>        -0.7248
     21 C14         0.0606   -2.8349   -2.4711 C.2       1 <0>         0.5598
     22 O4          0.0497   -2.2275   -3.5243 O.2       1 <0>        -0.5371
     23 N4          0.0837   -4.1824   -2.4705 N.am      1 <0>        -0.7264
     24 C15         0.0955   -4.9154   -3.7389 C.3       1 <0>         0.1223
     25 C16         0.1214   -6.4193   -3.4587 C.3       1 <0>        -0.1091
     26 C17        -1.1788   -6.8313   -2.7653 C.3       1 <0>        -0.1510
     27 C18         0.2594   -7.1816   -4.7781 C.3       1 <0>        -0.1462
     28 H2          1.0088    1.8740   -0.0003 H         1 <0>         0.0749
     29 H3         -0.5368    1.8490   -0.8827 H         1 <0>         0.0761
     30 H4         -0.5281    1.8464    0.8972 H         1 <0>         0.0653
     31 H5          0.0151   -0.1580   -2.1265 H         1 <0>         0.1411
     32 H6          0.0788   -3.8730    0.0210 H         1 <0>         0.1281
     33 H7          0.0580   -2.6391    2.1450 H         1 <0>         0.1469
     34 H8          0.4939    0.8337    2.4869 H         1 <0>         0.4143
     35 H9          0.2773    0.4855    5.1301 H         1 <0>         0.1079
     36 H10        -1.2309    1.2319    4.5503 H         1 <0>         0.1010
     37 H11        -2.5203   -0.7014    5.4154 H         1 <0>         0.0873
     38 H12        -1.0120   -1.4479    5.9952 H         1 <0>         0.1030
     39 H13        -4.1200    0.0232    9.0984 H         1 <0>         0.4357
     40 H14        -2.2594    2.2410    6.2688 H         1 <0>         0.4413
     41 H15         0.0924   -4.6670   -1.6302 H         1 <0>         0.3997
     42 H16        -0.7991   -4.6676   -4.3101 H         1 <0>         0.0704
     43 H17         0.9806   -4.6372   -4.3111 H         1 <0>         0.0700
     44 H18         0.9676   -6.6541   -2.8131 H         1 <0>         0.0771
     45 H19        -1.1604   -7.9027   -2.5657 H         1 <0>         0.0600
     46 H20        -1.2772   -6.2882   -1.8254 H         1 <0>         0.0536
     47 H21        -2.0251   -6.5965   -3.4109 H         1 <0>         0.0588
     48 H22         1.1857   -6.8881   -5.2720 H         1 <0>         0.0588
     49 H23         0.2779   -8.2530   -4.5784 H         1 <0>         0.0617
     50 H24        -0.5868   -6.9468   -5.4236 H         1 <0>         0.0592
@<TRIPOS>BOND
     1    1    2 1
     2    1   28 1
     3    1   29 1
     4    1   30 1
     5    2    7 ar
     6    2    3 ar
     7    3    4 ar
     8    3   31 1
     9    4    5 ar
    10    4   21 1
    11    5    6 ar
    12    5   32 1
    13    6    7 ar
    14    6   33 1
    15    7    8 1
    16    8    9 am
    17    8   34 1
    18    9   10 2
    19    9   11 1
    20   11   12 1
    21   11   35 1
    22   11   36 1
    23   12   13 1
    24   12   37 1
    25   12   38 1
    26   13   14 1
    27   13   20 1
    28   13   15 1
    29   15   16 2
    30   15   17 am
    31   17   18 am
    32   17   39 1
    33   18   19 2
    34   18   20 am
    35   20   40 1
    36   21   22 2
    37   21   23 am
    38   23   24 1
    39   23   41 1
    40   24   25 1
    41   24   42 1
    42   24   43 1
    43   25   26 1
    44   25   27 1
    45   25   44 1
    46   26   45 1
    47   26   46 1
    48   26   47 1
    49   27   48 1
    50   27   49 1
    51   27   50 1
