@<TRIPOS>MOLECULE
ZINC48747079
   40    41     0     0     0
SMALL
USER_CHARGES

@<TRIPOS>ATOM
      1 C1         -0.0184    1.5028    0.0103 C.3       1 <0>        -0.1233
      2 C2          0.0021   -0.0041    0.0020 C.ar      1 <0>        -0.0432
      3 C3          0.0056   -0.6861   -1.2040 C.ar      1 <0>        -0.1344
      4 C4          0.0243   -2.0637   -1.2235 C.ar      1 <0>        -0.0734
      5 C5          0.0396   -2.7772   -0.0224 C.ar      1 <0>        -0.1725
      6 C6          0.0360   -2.0837    1.1953 C.ar      1 <0>         0.1726
      7 C7          0.0228   -0.6966    1.1961 C.ar      1 <0>        -0.1232
      8 C8          0.0250    0.0552    2.5022 C.3       1 <0>        -0.1107
      9 O1          0.0504   -2.7656    2.3678 O.3       1 <0>        -0.4738
     10 C9          0.0591   -4.2524   -0.0360 C.2       1 <0>         0.5598
     11 O2          0.0725   -4.8699    1.0113 O.2       1 <0>        -0.5198
     12 N1          0.0622   -4.9155   -1.2094 N.am      1 <0>        -0.7313
     13 C10         0.0815   -6.3804   -1.2229 C.3       1 <0>         0.1275
     14 C11         0.0810   -6.8771   -2.6700 C.3       1 <0>        -0.1362
     15 H1         -0.7689   -6.4492   -3.2016 H         1 <0>         0.0877
     16 C12        -0.0215   -8.4054   -2.6865 C.3       1 <0>        -0.1156
     17 C13         0.0573   -8.8957   -4.1356 C.3       1 <0>        -0.1560
     18 C14         1.3590   -8.3938   -4.7658 C.3       1 <0>         0.0574
     19 O3          1.4046   -6.9676   -4.6899 O.3       1 <0>        -0.3805
     20 C15         1.3811   -6.4519   -3.3573 C.3       1 <0>         0.0649
     21 H2          1.0042    1.8801    0.0026 H         1 <0>         0.0777
     22 H3         -0.5455    1.8639   -0.8728 H         1 <0>         0.0724
     23 H4         -0.5286    1.8543    0.9071 H         1 <0>         0.0739
     24 H5         -0.0066   -0.1355   -2.1330 H         1 <0>         0.1325
     25 H6          0.0266   -2.5912   -2.1659 H         1 <0>         0.1283
     26 H7         -1.0020    0.2225    2.8268 H         1 <0>         0.0745
     27 H8          0.5539   -0.5278    3.2561 H         1 <0>         0.0699
     28 H9          0.5245    1.0147    2.3683 H         1 <0>         0.0707
     29 H10         0.9378   -2.9516    2.7038 H         1 <0>         0.3939
     30 H11         0.0515   -4.4229   -2.0449 H         1 <0>         0.3988
     31 H12         0.9788   -6.7365   -0.7168 H         1 <0>         0.0714
     32 H13        -0.8010   -6.7601   -0.7080 H         1 <0>         0.0738
     33 H14         0.8005   -8.8322   -2.1119 H         1 <0>         0.0691
     34 H15        -0.9717   -8.7118   -2.2490 H         1 <0>         0.0735
     35 H16         0.0407   -9.9854   -4.1528 H         1 <0>         0.0776
     36 H17        -0.7926   -8.5086   -4.6978 H         1 <0>         0.0731
     37 H18         2.2089   -8.8138   -4.2279 H         1 <0>         0.0517
     38 H19         1.4004   -8.7038   -5.8100 H         1 <0>         0.0957
     39 H20         1.4378   -5.3637   -3.3865 H         1 <0>         0.0913
     40 H21         2.2319   -6.8456   -2.8012 H         1 <0>         0.0544
@<TRIPOS>BOND
     1    1    2 1
     2    1   21 1
     3    1   22 1
     4    1   23 1
     5    2    7 ar
     6    2    3 ar
     7    3    4 ar
     8    3   24 1
     9    4    5 ar
    10    4   25 1
    11    5    6 ar
    12    5   10 1
    13    6    7 ar
    14    6    9 1
    15    7    8 1
    16    8   26 1
    17    8   27 1
    18    8   28 1
    19    9   29 1
    20   10   11 2
    21   10   12 am
    22   12   13 1
    23   12   30 1
    24   13   14 1
    25   13   31 1
    26   13   32 1
    27   14   15 1
    28   14   20 1
    29   14   16 1
    30   16   17 1
    31   16   33 1
    32   16   34 1
    33   17   18 1
    34   17   35 1
    35   17   36 1
    36   18   19 1
    37   18   37 1
    38   18   38 1
    39   19   20 1
    40   20   39 1
    41   20   40 1
