@<TRIPOS>MOLECULE
ZINC63281218
   43    46     0     0     0
SMALL
USER_CHARGES

@<TRIPOS>ATOM
      1 C1         -0.0163    1.3482    0.0095 C.ar      1 <0>        -0.1466
      2 C2          1.1658    2.1014    0.0022 C.ar      1 <0>         0.0626
      3 C3          2.3912    1.5352   -0.0125 C.ar      1 <0>        -0.2091
      4 C4          2.5288    0.1198   -0.0218 C.ar      1 <0>         0.3390
      5 N1          3.5868   -0.6543   -0.0369 N.pl3     1 <0>        -0.5594
      6 C5          3.1432   -2.0528   -0.0408 C.3       1 <0>         0.0672
      7 H1          3.4952   -2.5561   -0.9413 H         1 <0>         0.2002
      8 C6          1.6315   -2.0084   -0.0255 C.2       1 <0>         0.0313
      9 C7          1.2951   -0.6984   -0.0144 C.ar      1 <0>        -0.1482
     10 C8          0.0021   -0.0041    0.0020 C.ar      1 <0>        -0.0139
     11 C9          3.6559   -2.7638    1.1850 C.2       1 <0>         0.5264
     12 O1          4.3317   -2.1653    1.9950 O.2       1 <0>        -0.4941
     13 N2          3.3634   -4.0647    1.3813 N.am      1 <0>        -0.7056
     14 C10         3.8618   -4.7559    2.5729 C.3       1 <0>         0.1071
     15 C11         3.3906   -6.2113    2.5529 C.3       1 <0>         0.1126
     16 N3          3.8890   -6.9025    3.7445 N.pl3     1 <0>        -1.1116
     17 S1          3.2444   -8.3629    4.1850 S.o2      1 <0>         2.7043
     18 O2          3.9456   -8.7823    5.3476 O.2       1 <0>        -0.9454
     19 O3          1.8321   -8.2071    4.1619 O.2       1 <0>        -0.9329
     20 C12         3.6449   -9.5142    2.9127 C.ar      1 <0>        -0.6524
     21 C13         4.4592  -10.5616    3.1812 C.ar      1 <0>         0.0586
     22 C14         4.7971  -11.4926    2.1990 C.ar      1 <0>        -0.1248
     23 C15         4.3259  -11.3889    0.9343 C.ar      1 <0>         0.0000
     24 C16         3.4657  -10.3147    0.5795 C.ar      1 <0>         0.0529
     25 C17         3.1076   -9.3446    1.6080 C.ar      1 <0>         0.1330
     26 N4          2.2934   -8.3861    1.1639 N.2       1 <0>        -0.5247
     27 S2          2.0323   -8.7223   -0.3876 S.3       1 <0>         0.6505
     28 N5          2.9100  -10.0531   -0.6044 N.2       1 <0>        -0.4796
     29 H2         -0.9665    1.8612    0.0259 H         1 <0>         0.1617
     30 H3          1.0933    3.1789    0.0083 H         1 <0>         0.1647
     31 H4          3.2717    2.1606   -0.0175 H         1 <0>         0.1643
     32 H5          0.9572   -2.8520   -0.0244 H         1 <0>         0.2171
     33 H6         -0.9210   -0.5647    0.0081 H         1 <0>         0.1676
     34 H7          2.8229   -4.5434    0.7335 H         1 <0>         0.4113
     35 H8          4.9514   -4.7268    2.5807 H         1 <0>         0.0889
     36 H9          3.4788   -4.2622    3.4661 H         1 <0>         0.0922
     37 H10         2.3010   -6.2404    2.5451 H         1 <0>         0.1007
     38 H11         3.7736   -6.7050    1.6597 H         1 <0>         0.0704
     39 H12         4.5966   -6.5047    4.2756 H         1 <0>         0.4235
     40 H13         4.8565  -10.6790    4.1786 H         1 <0>         0.1654
     41 H14         5.4499  -12.3146    2.4532 H         1 <0>         0.1583
     42 H15         4.6044  -12.1237    0.1934 H         1 <0>         0.1556
     43 H16         4.5087   -0.3528   -0.0446 H         1 <0>         0.4608
@<TRIPOS>BOND
     1    1   10 ar
     2    1    2 ar
     3    1   29 1
     4    2    3 ar
     5    2   30 1
     6    3    4 ar
     7    3   31 1
     8    4    9 ar
     9    4    5 2
    10    5    6 1
    11    5   43 1
    12    6    7 1
    13    6    8 1
    14    6   11 1
    15    8    9 2
    16    8   32 1
    17    9   10 ar
    18   10   33 1
    19   11   12 2
    20   11   13 am
    21   13   14 1
    22   13   34 1
    23   14   15 1
    24   14   35 1
    25   14   36 1
    26   15   16 1
    27   15   37 1
    28   15   38 1
    29   16   17 1
    30   16   39 1
    31   17   18 2
    32   17   19 2
    33   17   20 1
    34   20   25 ar
    35   20   21 ar
    36   21   22 ar
    37   21   40 1
    38   22   23 ar
    39   22   41 1
    40   23   24 ar
    41   23   42 1
    42   24   28 2
    43   24   25 ar
    44   25   26 2
    45   26   27 1
    46   27   28 1
