@<TRIPOS>MOLECULE
ZINC00481393
   33    34     0     0     0
SMALL
USER_CHARGES

@<TRIPOS>ATOM
      1 C1         -0.1840    0.7956    0.7257 C.3       1 <0>        -0.1497
      2 C2         -0.2341   -0.6872    0.4614 C.2       1 <0>         0.4982
      3 O1         -0.3629   -1.5517    1.4893 O.3       1 <0>        -0.5085
      4 N1         -0.1539   -1.1301   -0.7479 N.2       1 <0>        -0.9533
      5 S1         -0.2089   -2.7595   -1.0383 S.o2      1 <0>         2.6386
      6 O2          0.9670   -3.3142   -0.4648 O.2       1 <0>        -0.9641
      7 O3         -1.5120   -3.1933   -0.6736 O.2       1 <0>        -0.9661
      8 C3         -0.0730   -2.9831   -2.7808 C.ar      1 <0>        -0.7546
      9 C4          1.0245   -3.6289   -3.3214 C.ar      1 <0>         0.0617
     10 C5          1.0903   -3.7829   -4.6996 C.ar      1 <0>        -0.2390
     11 C6          0.0665   -3.2909   -5.4848 C.ar      1 <0>         0.2012
     12 N2         -0.9685   -2.6790   -4.9417 N.ar      1 <0>        -0.5348
     13 C7         -1.0706   -2.5176   -3.6311 C.ar      1 <0>         0.4830
     14 N3         -2.1825   -1.8721   -3.1008 N.pl3     1 <0>        -0.6548
     15 C8         -3.2446   -1.5098   -3.9349 C.ar      1 <0>         0.1650
     16 C9         -3.6189   -2.3388   -4.9847 C.ar      1 <0>        -0.0994
     17 C10        -4.6685   -1.9787   -5.8068 C.ar      1 <0>        -0.0887
     18 C11        -5.3469   -0.7930   -5.5857 C.ar      1 <0>        -0.0512
     19 C12        -4.9759    0.0351   -4.5408 C.ar      1 <0>        -0.0880
     20 C13        -3.9310   -0.3230   -3.7119 C.ar      1 <0>        -0.1344
     21 Cl1        -6.6656   -0.3432   -6.6214 Cl        1 <0>        -0.0698
     22 H1          0.8509    1.1032    0.8755 H         1 <0>         0.1165
     23 H2         -0.6024    1.3309   -0.1267 H         1 <0>         0.1144
     24 H3         -0.7643    1.0252    1.6193 H         1 <0>         0.1000
     25 H4          1.8126   -4.0045   -2.6856 H         1 <0>         0.1560
     26 H5          1.9339   -4.2821   -5.1531 H         1 <0>         0.1486
     27 H6          0.1138   -3.4082   -6.5573 H         1 <0>         0.1710
     28 H7         -2.2212   -1.6732   -2.1522 H         1 <0>         0.4187
     29 H8         -3.0893   -3.2639   -5.1581 H         1 <0>         0.1402
     30 H9         -4.9600   -2.6229   -6.6231 H         1 <0>         0.1375
     31 H10        -5.5066    0.9602   -4.3710 H         1 <0>         0.1386
     32 H11        -3.6447    0.3215   -2.8939 H         1 <0>         0.1348
     33 H12        -0.4152   -1.1268    2.3563 H         1 <0>         0.4322
@<TRIPOS>BOND
     1    1    2 1
     2    1   22 1
     3    1   23 1
     4    1   24 1
     5    2    3 1
     6    2    4 2
     7    3   33 1
     8    4    5 1
     9    5    6 2
    10    5    7 2
    11    5    8 1
    12    8   13 ar
    13    8    9 ar
    14    9   10 ar
    15    9   25 1
    16   10   11 ar
    17   10   26 1
    18   11   12 ar
    19   11   27 1
    20   12   13 ar
    21   13   14 1
    22   14   15 1
    23   14   28 1
    24   15   20 ar
    25   15   16 ar
    26   16   17 ar
    27   16   29 1
    28   17   18 ar
    29   17   30 1
    30   18   19 ar
    31   18   21 1
    32   19   20 ar
    33   19   31 1
    34   20   32 1
