@<TRIPOS>MOLECULE
ZINC32881944
   50    53     0     0     0
SMALL
USER_CHARGES
N-[(R)-(4-chlorophenyl)-(1-methylimidazol-2-yl)methyl]-3-(1-methyl-4-oxo-pyrazolo[3,4-d]pyrimidin-5-yl)propanamide
@<TRIPOS>ATOM
      1 C1          1.8883   -2.2670    0.9619 C.3       1 <0>         0.0622
      2 N1          0.9748   -1.5008    1.8132 N.pl3     1 <0>        -0.4481
      3 C2          0.8043   -1.6509    3.1631 C.2       1 <0>        -0.0502
      4 C3         -0.1286   -0.7558    3.5398 C.2       1 <0>        -0.0276
      5 N2         -0.5130   -0.0737    2.4507 N.2       1 <0>        -0.4728
      6 C4          0.1462   -0.5123    1.4134 C.2       1 <0>         0.1905
      7 C5          0.0021   -0.0041    0.0020 C.3       1 <0>         0.2840
      8 H1          0.8581   -0.3282   -0.6081 H         1 <0>         0.1105
      9 C6         -1.2844   -0.5207   -0.5890 C.ar      1 <0>        -0.0880
     10 C7         -2.4834    0.0924   -0.2767 C.ar      1 <0>        -0.0811
     11 C8         -3.6629   -0.3774   -0.8229 C.ar      1 <0>        -0.1057
     12 C9         -3.6448   -1.4685   -1.6733 C.ar      1 <0>        -0.0278
     13 C10        -2.4451   -2.0852   -1.9810 C.ar      1 <0>        -0.1072
     14 C11        -1.2656   -1.6109   -1.4387 C.ar      1 <0>        -0.0925
     15 Cl1        -5.1268   -2.0639   -2.3537 Cl        1 <0>        -0.0640
     16 N3         -0.0178    1.4608    0.0101 N.am      1 <0>        -0.7217
     17 C12         1.1401    2.1505    0.0027 C.2       1 <0>         0.5310
     18 O1          2.1985    1.5584   -0.0106 O.2       1 <0>        -0.5405
     19 C13         1.1197    3.6573    0.0110 C.3       1 <0>        -0.1589
     20 C14         2.5551    4.1869    0.0001 C.3       1 <0>         0.1099
     21 N4          2.5352    5.6517    0.0082 N.am      1 <0>        -0.5447
     22 C15         2.5204    6.3336   -1.1648 C.2       1 <0>         0.4154
     23 N5          2.4967    7.6326   -1.2300 N.2       1 <0>        -0.5317
     24 C16         2.4965    8.3978   -0.1271 C.2       1 <0>         0.3313
     25 C17         2.5169    7.7811    1.1338 C.2       1 <0>        -0.3422
     26 C18         2.5373    6.3194    1.1858 C.2       1 <0>         0.5738
     27 O2          2.5550    5.7250    2.2491 O.2       1 <0>        -0.5102
     28 C19         2.5113    8.8047    2.0996 C.2       1 <0>         0.1282
     29 N6          2.4894    9.9527    1.4805 N.2       1 <0>        -0.2704
     30 N7          2.4796    9.7375    0.0966 N.pl3     1 <0>        -0.3521
     31 C20         2.4558   10.7790   -0.9335 C.3       1 <0>         0.0988
     32 H2          2.4308   -3.0021    1.5746 H         1 <0>         0.0932
     33 H3          2.6074   -1.5832    0.4872 H         1 <0>         0.0882
     34 H4          1.3126   -2.7910    0.1847 H         1 <0>         0.0807
     35 H5          1.3159   -2.3552    3.8022 H         1 <0>         0.1758
     36 H6         -0.5016   -0.6120    4.5431 H         1 <0>         0.1708
     37 H7         -2.4979    0.9414    0.3907 H         1 <0>         0.1377
     38 H8         -4.5991    0.1044   -0.5823 H         1 <0>         0.1383
     39 H9         -2.4304   -2.9372   -2.6446 H         1 <0>         0.1376
     40 H10        -0.3291   -2.0924   -1.6785 H         1 <0>         0.1323
     41 H11        -0.9778    1.9978    0.0222 H         1 <0>         0.4288
     42 H12         0.5877    4.0217   -0.8802 H         1 <0>         0.1047
     43 H13         0.6048    4.0121    0.9160 H         1 <0>         0.1075
     44 H14         3.0871    3.8225    0.8912 H         1 <0>         0.1123
     45 H15         3.0700    3.8322   -0.9049 H         1 <0>         0.1090
     46 H16         2.5237    5.7718   -2.0871 H         1 <0>         0.2135
     47 H17         2.5237    8.6639    3.1703 H         1 <0>         0.1992
     48 H18         2.4461   11.7689   -0.4539 H         1 <0>         0.1008
     49 H19         1.5537   10.6624   -1.5520 H         1 <0>         0.0858
     50 H20         3.3497   10.6877   -1.5679 H         1 <0>         0.0857
@<TRIPOS>BOND
     1    1    2 1
     2    1   32 1
     3    1   33 1
     4    1   34 1
     5    2    6 1
     6    2    3 1
     7    3    4 2
     8    3   35 1
     9    4    5 1
    10    4   36 1
    11    5    6 2
    12    6    7 1
    13    7    8 1
    14    7    9 1
    15    7   16 1
    16    9   14 ar
    17    9   10 ar
    18   10   11 ar
    19   10   37 1
    20   11   12 ar
    21   11   38 1
    22   12   13 ar
    23   12   15 1
    24   13   14 ar
    25   13   39 1
    26   14   40 1
    27   16   17 am
    28   16   41 1
    29   17   18 2
    30   17   19 1
    31   19   20 1
    32   19   42 1
    33   19   43 1
    34   20   21 1
    35   20   44 1
    36   20   45 1
    37   21   26 am
    38   21   22 1
    39   22   23 2
    40   22   46 1
    41   23   24 1
    42   24   30 1
    43   24   25 2
    44   25   26 1
    45   25   28 1
    46   26   27 2
    47   28   29 2
    48   28   47 1
    49   29   30 1
    50   30   31 1
    51   31   48 1
    52   31   49 1
    53   31   50 1
