@<TRIPOS>MOLECULE
ZINC08845504
   59    63     0     0     0
SMALL
USER_CHARGES

@<TRIPOS>ATOM
      1 C1         -0.0166    1.3755    0.0096 C.ar      1 <0>        -0.1227
      2 C2          1.1693    2.0890    0.0021 C.ar      1 <0>        -0.0909
      3 C3          2.3823    1.4267   -0.0130 C.ar      1 <0>        -0.1403
      4 C4          2.4171    0.0417   -0.0207 C.ar      1 <0>         0.1177
      5 C5          1.2200   -0.6830   -0.0132 C.ar      1 <0>        -0.0601
      6 C6          0.0021   -0.0041    0.0020 C.ar      1 <0>        -0.0745
      7 C7          1.2465   -2.1622   -0.0218 C.2       1 <0>         0.0637
      8 C8          0.4237   -2.9962    0.6828 C.2       1 <0>        -0.1498
      9 C9          0.8356   -4.3040    0.3451 C.2       1 <0>        -0.0183
     10 N1          1.8374   -4.1931   -0.5050 N.2       1 <0>        -0.2439
     11 N2          2.0925   -2.9561   -0.7387 N.pl3     1 <0>        -0.3556
     12 H1          2.7860   -2.6340   -1.3355 H         1 <0>         0.4536
     13 C10         0.2526   -5.5631    0.8511 C.2       1 <0>         0.6048
     14 O1         -0.6742   -5.5311    1.6372 O.2       1 <0>        -0.4888
     15 N3          0.7480   -6.7476    0.4413 N.am      1 <0>        -0.6084
     16 C11         0.2011   -7.9288    0.9160 C.2       1 <0>         0.0387
     17 C12         0.5815   -9.2269    0.6121 C.2       1 <0>        -0.2303
     18 C13        -0.1594  -10.3020    1.2484 C.2       1 <0>        -0.0589
     19 C14        -1.1447   -9.8825    2.0712 C.2       1 <0>        -0.2251
     20 S1         -1.0701   -8.1168    1.9971 S.3       1 <0>         0.2860
     21 C15        -2.0798  -10.7410    2.8656 C.3       1 <0>        -0.0338
     22 C16        -2.0014  -12.1739    2.3183 C.3       1 <0>        -0.1142
     23 C17        -0.5291  -12.5711    2.1782 C.3       1 <0>        -0.1188
     24 C18         0.1164  -11.7833    1.0360 C.3       1 <0>        -0.0595
     25 C19         1.6850   -9.5027   -0.3128 C.2       1 <0>         0.5824
     26 O2          2.8216   -9.6076    0.1098 O.2       1 <0>        -0.5329
     27 N4          1.4408   -9.6402   -1.6312 N.am      1 <0>        -0.7175
     28 C20         2.5435   -9.9159   -2.5555 C.3       1 <0>         0.1207
     29 C21         1.9987  -10.0251   -3.9810 C.3       1 <0>         0.0678
     30 H2          1.5033   -9.0977   -4.2682 H         1 <0>         0.0781
     31 C22         3.1450  -10.3514   -4.9713 C.3       1 <0>        -0.1485
     32 C23         2.3553  -11.0324   -6.1222 C.3       1 <0>        -0.1557
     33 C24         1.2322  -11.7670   -5.3591 C.3       1 <0>         0.0501
     34 O3          1.0864  -11.1300   -4.0829 O.3       1 <0>        -0.3765
     35 O4          3.6088   -0.6102   -0.0360 O.3       1 <0>        -0.5011
     36 H3         -0.9602    1.9006    0.0259 H         1 <0>         0.1343
     37 H4          1.1467    3.1688    0.0077 H         1 <0>         0.1329
     38 H5          3.3040    1.9895   -0.0191 H         1 <0>         0.1351
     39 H6         -0.9254   -0.5574    0.0079 H         1 <0>         0.1361
     40 H7         -0.3725   -2.7144    1.3559 H         1 <0>         0.1707
     41 H8          1.4875   -6.7732   -0.1860 H         1 <0>         0.4245
     42 H9         -1.7852  -10.7319    3.9149 H         1 <0>         0.0817
     43 H10        -3.0980  -10.3649    2.7660 H         1 <0>         0.0808
     44 H11        -2.4995  -12.8557    3.0075 H         1 <0>         0.0730
     45 H12        -2.4862  -12.2192    1.3430 H         1 <0>         0.0680
     46 H13        -0.0054  -12.3539    3.1091 H         1 <0>         0.0668
     47 H14        -0.4605  -13.6380    1.9661 H         1 <0>         0.0693
     48 H15        -0.3103  -12.1019    0.0849 H         1 <0>         0.0779
     49 H16         1.1923  -11.9582    1.0335 H         1 <0>         0.0744
     50 H17         0.5350   -9.5567   -1.9679 H         1 <0>         0.4059
     51 H18         3.2707   -9.1055   -2.5055 H         1 <0>         0.0812
     52 H19         3.0247  -10.8536   -2.2776 H         1 <0>         0.0762
     53 H20         3.6366   -9.4419   -5.3166 H         1 <0>         0.0877
     54 H21         3.8638  -11.0399   -4.5270 H         1 <0>         0.0844
     55 H22         1.9401  -10.2878   -6.8014 H         1 <0>         0.0782
     56 H23         2.9863  -11.7403   -6.6597 H         1 <0>         0.0853
     57 H24         0.2980  -11.6942   -5.9159 H         1 <0>         0.0701
     58 H25         1.5018  -12.8142   -5.2222 H         1 <0>         0.0714
     59 H26         3.9626   -0.8037    0.8429 H         1 <0>         0.3967
@<TRIPOS>BOND
     1    1    6 ar
     2    1    2 ar
     3    1   36 1
     4    2    3 ar
     5    2   37 1
     6    3    4 ar
     7    3   38 1
     8    4    5 ar
     9    4   35 1
    10    5    6 ar
    11    5    7 1
    12    6   39 1
    13    7   11 1
    14    7    8 2
    15    8    9 1
    16    8   40 1
    17    9   10 2
    18    9   13 1
    19   10   11 1
    20   11   12 1
    21   13   14 2
    22   13   15 am
    23   15   16 1
    24   15   41 1
    25   16   20 1
    26   16   17 2
    27   17   18 1
    28   17   25 1
    29   18   24 1
    30   18   19 2
    31   19   20 1
    32   19   21 1
    33   21   22 1
    34   21   42 1
    35   21   43 1
    36   22   23 1
    37   22   44 1
    38   22   45 1
    39   23   24 1
    40   23   46 1
    41   23   47 1
    42   24   48 1
    43   24   49 1
    44   25   26 2
    45   25   27 am
    46   27   28 1
    47   27   50 1
    48   28   29 1
    49   28   51 1
    50   28   52 1
    51   29   30 1
    52   29   34 1
    53   29   31 1
    54   31   32 1
    55   31   53 1
    56   31   54 1
    57   32   33 1
    58   32   55 1
    59   32   56 1
    60   33   34 1
    61   33   57 1
    62   33   58 1
    63   35   59 1
