@<TRIPOS>MOLECULE
ZINC66783127
   41    43     0     0     0
SMALL
USER_CHARGES

@<TRIPOS>ATOM
      1 C1         -0.0184    1.5028    0.0103 C.3       1 <0>        -0.1101
      2 C2          0.0021   -0.0041    0.0020 C.2       1 <0>        -0.0150
      3 C3          0.0067   -0.7285   -1.1658 C.2       1 <0>        -0.1863
      4 C4          0.0253   -2.0828   -1.1012 C.2       1 <0>        -0.2078
      5 S1          0.0372   -2.4164    0.5452 S.3       1 <0>         0.2081
      6 C5          0.0233   -0.7477    1.1721 C.2       1 <0>        -0.2723
      7 C6          0.0306   -0.2828    2.5623 C.2       1 <0>         0.6129
      8 O1          0.0170    0.9096    2.8053 O.2       1 <0>        -0.5165
      9 N1          0.0522   -1.1760    3.5714 N.am      1 <0>        -0.5206
     10 N2          0.0591   -0.7317    4.9001 N.am      1 <0>        -0.5037
     11 C7          0.0808   -1.6248    5.9092 C.2       1 <0>         0.5330
     12 O2          0.0942   -2.8131    5.6670 O.2       1 <0>        -0.5242
     13 C8          0.0883   -1.1469    7.3384 C.3       1 <0>        -0.1349
     14 H1         -0.7962   -0.5434    7.5425 H         1 <0>         0.1528
     15 C9          0.1602   -2.3475    8.3101 C.3       1 <0>        -0.1129
     16 C10         1.0592   -1.7887    9.4352 C.3       1 <0>         0.0903
     17 N3          1.8728   -0.7434    8.8035 N.am      1 <0>        -0.5520
     18 C11         1.3461   -0.3571    7.6260 C.2       1 <0>         0.5280
     19 O3          1.8116    0.4963    6.9007 O.2       1 <0>        -0.4835
     20 C12         3.0446   -0.2138    9.3550 C.ar      1 <0>         0.2250
     21 C13         3.5107   -0.6806   10.5768 C.ar      1 <0>        -0.2046
     22 C14         4.6695   -0.1556   11.1204 C.ar      1 <0>         0.1632
     23 C15         5.3641    0.8351   10.4472 C.ar      1 <0>        -0.2159
     24 C16         4.9010    1.3021    9.2286 C.ar      1 <0>         0.1652
     25 C17         3.7460    0.7754    8.6786 C.ar      1 <0>        -0.2070
     26 F1          5.5803    2.2692    8.5740 F         1 <0>        -0.1228
     27 F2          5.1233   -0.6096   12.3092 F         1 <0>        -0.1242
     28 H2          1.0042    1.8801    0.0026 H         1 <0>         0.0791
     29 H3         -0.5455    1.8639   -0.8728 H         1 <0>         0.0693
     30 H4         -0.5286    1.8543    0.9071 H         1 <0>         0.0895
     31 H5         -0.0048   -0.2261   -2.1218 H         1 <0>         0.1427
     32 H6          0.0306   -2.7861   -1.9208 H         1 <0>         0.1929
     33 H7          0.0630   -2.1264    3.3777 H         1 <0>         0.4312
     34 H8          0.0484    0.2187    5.0937 H         1 <0>         0.4405
     35 H9         -0.8292   -2.6009    8.6909 H         1 <0>         0.1115
     36 H10         0.6248   -3.2095    7.8314 H         1 <0>         0.1096
     37 H11         0.4474   -1.3618   10.2299 H         1 <0>         0.0945
     38 H12         1.6993   -2.5763    9.8328 H         1 <0>         0.0996
     39 H13         2.9687   -1.4529   11.1025 H         1 <0>         0.1485
     40 H14         6.2682    1.2445   10.8733 H         1 <0>         0.1522
     41 H15         3.3875    1.1367    7.7261 H         1 <0>         0.1747
@<TRIPOS>BOND
     1    1    2 1
     2    1   28 1
     3    1   29 1
     4    1   30 1
     5    2    6 2
     6    2    3 1
     7    3    4 2
     8    3   31 1
     9    4    5 1
    10    4   32 1
    11    5    6 1
    12    6    7 1
    13    7    8 2
    14    7    9 am
    15    9   10 1
    16    9   33 1
    17   10   11 am
    18   10   34 1
    19   11   12 2
    20   11   13 1
    21   13   14 1
    22   13   18 1
    23   13   15 1
    24   15   16 1
    25   15   35 1
    26   15   36 1
    27   16   17 1
    28   16   37 1
    29   16   38 1
    30   17   18 am
    31   17   20 1
    32   18   19 2
    33   20   25 ar
    34   20   21 ar
    35   21   22 ar
    36   21   39 1
    37   22   23 ar
    38   22   27 1
    39   23   24 ar
    40   23   40 1
    41   24   25 ar
    42   24   26 1
    43   25   41 1
