@<TRIPOS>MOLECULE
ZINC01404076
   40    42     0     0     0
SMALL
USER_CHARGES
3-(4-hydroxyphenyl)-3-(1-oxoisoindolin-2-yl)-propanehydrazide
@<TRIPOS>ATOM
      1 C1         -1.5157    2.2099    3.4351 C.ar      1 <0>        -0.0859
      2 C2         -2.5823    2.9377    2.9374 C.ar      1 <0>        -0.1290
      3 C3         -2.7745    3.0491    1.5760 C.ar      1 <0>        -0.0467
      4 C4         -1.8885    2.4244    0.6961 C.ar      1 <0>        -0.1615
      5 C5         -0.8140    1.6924    1.2101 C.ar      1 <0>        -0.0774
      6 C6         -0.6327    1.5876    2.5688 C.ar      1 <0>        -0.1042
      7 C7         -0.0599    1.1527    0.0206 C.3       1 <0>         0.1407
      8 N1         -0.7746    1.6269   -1.1700 N.am      1 <0>        -0.5983
      9 C8         -1.8298    2.3608   -0.7768 C.2       1 <0>         0.5601
     10 O1         -2.6226    2.8953   -1.5273 O.2       1 <0>        -0.5218
     11 C9         -0.4001    1.3463   -2.5582 C.3       1 <0>         0.2338
     12 H1          0.5404    0.7956   -2.5766 H         1 <0>         0.1161
     13 C10        -0.2345    2.6639   -3.3181 C.3       1 <0>        -0.1598
     14 C11         0.9245    3.4346   -2.7405 C.2       1 <0>         0.5195
     15 O2          1.5560    2.9754   -1.8125 O.2       1 <0>        -0.5243
     16 N2          1.2594    4.6344   -3.2553 N.am      1 <0>        -0.5799
     17 N3          2.3099    5.3331   -2.7317 N.3       1 <0>        -0.6023
     18 C12        -1.4782    0.5211   -3.2124 C.ar      1 <0>        -0.1063
     19 C13        -2.2071   -0.3823   -2.4613 C.ar      1 <0>        -0.0820
     20 C14        -3.1998   -1.1358   -3.0575 C.ar      1 <0>        -0.1414
     21 C15        -3.4570   -0.9939   -4.4133 C.ar      1 <0>         0.1087
     22 C16        -2.7203   -0.0907   -5.1659 C.ar      1 <0>        -0.1412
     23 C17        -1.7329    0.6648   -4.5638 C.ar      1 <0>        -0.0928
     24 O3         -4.4286   -1.7386   -5.0034 O.3       1 <0>        -0.4993
     25 H2         -1.3713    2.1274    4.5022 H         1 <0>         0.1335
     26 H3         -3.2678    3.4205    3.6181 H         1 <0>         0.1328
     27 H4         -3.6084    3.6177    1.1917 H         1 <0>         0.1304
     28 H5          0.1989    1.0204    2.9602 H         1 <0>         0.1320
     29 H6         -0.0533    0.0630    0.0443 H         1 <0>         0.0932
     30 H7          0.9615    1.5332    0.0206 H         1 <0>         0.1111
     31 H8         -0.0434    2.4547   -4.3706 H         1 <0>         0.1138
     32 H9         -1.1461    3.2542   -3.2247 H         1 <0>         0.1176
     33 H10         0.7543    5.0017   -3.9975 H         1 <0>         0.4013
     34 H11         2.4400    6.2081   -3.2170 H         1 <0>         0.3579
     35 H12         2.1867    5.4835   -1.7417 H         1 <0>         0.3460
     36 H13        -2.0030   -0.4962   -1.4069 H         1 <0>         0.1227
     37 H14        -3.7716   -1.8385   -2.4695 H         1 <0>         0.1291
     38 H15        -2.9189    0.0219   -6.2215 H         1 <0>         0.1314
     39 H16        -1.1591    1.3680   -5.1492 H         1 <0>         0.1307
     40 H17        -4.1179   -2.5853   -5.3522 H         1 <0>         0.3917
@<TRIPOS>BOND
     1    1    6 ar
     2    1    2 ar
     3    1   25 1
     4    2    3 ar
     5    2   26 1
     6    3    4 ar
     7    3   27 1
     8    4    9 1
     9    4    5 ar
    10    5    6 ar
    11    5    7 1
    12    6   28 1
    13    7    8 1
    14    7   29 1
    15    7   30 1
    16    8    9 am
    17    8   11 1
    18    9   10 2
    19   11   12 1
    20   11   13 1
    21   11   18 1
    22   13   14 1
    23   13   31 1
    24   13   32 1
    25   14   15 2
    26   14   16 am
    27   16   17 1
    28   16   33 1
    29   17   34 1
    30   17   35 1
    31   18   23 ar
    32   18   19 ar
    33   19   20 ar
    34   19   36 1
    35   20   21 ar
    36   20   37 1
    37   21   22 ar
    38   21   24 1
    39   22   23 ar
    40   22   38 1
    41   23   39 1
    42   24   40 1
