@<TRIPOS>MOLECULE
ZINC52569928
   49    52     0     0     0
SMALL
USER_CHARGES

@<TRIPOS>ATOM
      1 C1         -0.0163    1.3482    0.0095 C.ar      1 <0>        -0.1063
      2 C2          1.1658    2.1014    0.0022 C.ar      1 <0>         0.0610
      3 C3          2.3912    1.5352   -0.0125 C.ar      1 <0>        -0.2016
      4 C4          2.5288    0.1198   -0.0218 C.ar      1 <0>         0.3313
      5 N1          3.5868   -0.6543   -0.0369 N.pl3     1 <0>        -0.5607
      6 C5          3.1432   -2.0528   -0.0408 C.3       1 <0>         0.0599
      7 C6          1.6315   -2.0084   -0.0255 C.2       1 <0>        -0.0795
      8 C7          1.2951   -0.6984   -0.0144 C.ar      1 <0>        -0.0985
      9 C8          0.0021   -0.0041    0.0020 C.ar      1 <0>        -0.0616
     10 C9          0.6905   -3.1856   -0.0239 C.3       1 <0>         0.1596
     11 H1         -0.3390   -2.8277   -0.0118 H         1 <0>         0.1601
     12 C10         0.9234   -4.0264   -1.2808 C.3       1 <0>        -0.0221
     13 H2          1.9529   -4.3843   -1.2929 H         1 <0>         0.1622
     14 C11        -0.0319   -5.2215   -1.2791 C.3       1 <0>         0.1237
     15 N2          0.1071   -5.9595   -2.5370 N.pl3     1 <0>        -0.7286
     16 C12        -0.6614   -7.0878   -2.7660 C.ar      1 <0>         0.5555
     17 N3         -1.5215   -7.4824   -1.8379 N.ar      1 <0>        -0.5630
     18 C13        -2.2738   -8.5555   -2.0192 C.ar      1 <0>         0.2013
     19 C14        -2.1569   -9.2732   -3.1975 C.ar      1 <0>        -0.2458
     20 C15        -1.2422   -8.8331   -4.1564 C.ar      1 <0>         0.2675
     21 N4         -0.5222   -7.7417   -3.9081 N.ar      1 <0>        -0.5549
     22 C16        -1.0794   -9.5681   -5.4353 C.ar      1 <0>        -0.0303
     23 C17        -1.8388  -10.7086   -5.7094 C.ar      1 <0>        -0.1408
     24 C18        -1.6560  -11.3619   -6.9117 C.ar      1 <0>         0.1073
     25 N5         -0.7798  -10.9230   -7.7942 N.ar      1 <0>        -0.4648
     26 C19        -0.0435   -9.8511   -7.5747 C.ar      1 <0>         0.0997
     27 C20        -0.1666   -9.1351   -6.4008 C.ar      1 <0>        -0.1283
     28 N6          0.6768   -3.2040   -2.4727 N.4       1 <0>        -0.6370
     29 O1          0.9304   -3.9856    1.1356 O.3       1 <0>        -0.4921
     30 H3         -0.9665    1.8612    0.0259 H         1 <0>         0.1699
     31 H4          1.0933    3.1789    0.0083 H         1 <0>         0.1732
     32 H5          3.2717    2.1606   -0.0175 H         1 <0>         0.1718
     33 H6          3.4952   -2.5561   -0.9413 H         1 <0>         0.1701
     34 H7          3.5129   -2.5667    0.8465 H         1 <0>         0.1841
     35 H8         -0.9210   -0.5647    0.0081 H         1 <0>         0.1683
     36 H9          0.2097   -5.8786   -0.4437 H         1 <0>         0.1274
     37 H10        -1.0575   -4.8666   -1.1775 H         1 <0>         0.1056
     38 H11         0.7376   -5.6575   -3.2094 H         1 <0>         0.4049
     39 H12        -2.9713   -8.8685   -1.2563 H         1 <0>         0.1832
     40 H13        -2.7588  -10.1530   -3.3706 H         1 <0>         0.1596
     41 H14        -2.5579  -11.0738   -4.9911 H         1 <0>         0.1451
     42 H15        -2.2381  -12.2444   -7.1324 H         1 <0>         0.1687
     43 H16         0.6622   -9.5266   -8.3251 H         1 <0>         0.1638
     44 H17         0.4363   -8.2556   -6.2296 H         1 <0>         0.1426
     45 H18         0.8304   -3.7585   -3.3016 H         1 <0>         0.4477
     46 H19        -0.2762   -2.8727   -2.4615 H         1 <0>         0.4456
     47 H20         1.8290   -4.3385    1.1909 H         1 <0>         0.3994
     48 H21         4.5087   -0.3528   -0.0446 H         1 <0>         0.4658
     49 H22         1.3069   -2.4159   -2.4738 H         1 <0>         0.4303
@<TRIPOS>BOND
     1    1    9 ar
     2    1    2 ar
     3    1   30 1
     4    2    3 ar
     5    2   31 1
     6    3    4 ar
     7    3   32 1
     8    4    8 ar
     9    4    5 2
    10    5    6 1
    11    5   48 1
    12    6    7 1
    13    6   33 1
    14    6   34 1
    15    7    8 2
    16    7   10 1
    17    8    9 ar
    18    9   35 1
    19   10   11 1
    20   10   12 1
    21   10   29 1
    22   12   13 1
    23   12   14 1
    24   12   28 1
    25   14   15 1
    26   14   36 1
    27   14   37 1
    28   15   16 1
    29   15   38 1
    30   16   21 ar
    31   16   17 ar
    32   17   18 ar
    33   18   19 ar
    34   18   39 1
    35   19   20 ar
    36   19   40 1
    37   20   21 ar
    38   20   22 1
    39   22   27 ar
    40   22   23 ar
    41   23   24 ar
    42   23   41 1
    43   24   25 ar
    44   24   42 1
    45   25   26 ar
    46   26   27 ar
    47   26   43 1
    48   27   44 1
    49   28   45 1
    50   28   46 1
    51   28   49 1
    52   29   47 1
