@<TRIPOS>MOLECULE
ZINC15717827
   43    44     0     0     0
SMALL
USER_CHARGES
O3-[(1S)-2-[(4-bromo-2-fluoro-phenyl)amino]-1-methyl-2-oxo-ethyl] O1-methyl 5-nitrobenzene-1,3-dicarboxylate
@<TRIPOS>ATOM
      1 C1         -5.6570   -7.0063   -1.4105 C.3       1 <0>        -0.1713
      2 C2         -5.1834   -6.8081    0.0308 C.3       1 <0>         0.0770
      3 H1         -5.8881   -6.1664    0.5598 H         1 <0>         0.1237
      4 C3         -5.1048   -8.1449    0.7221 C.2       1 <0>         0.5215
      5 O1         -4.0468   -8.5356    1.1684 O.2       1 <0>        -0.4868
      6 N1         -6.2101   -8.9064    0.8443 N.am      1 <0>        -0.6645
      7 C4         -6.1195  -10.1879    1.4027 C.ar      1 <0>         0.1291
      8 C5         -5.2137  -10.4391    2.4240 C.ar      1 <0>        -0.0885
      9 C6         -5.1261  -11.7036    2.9730 C.ar      1 <0>        -0.0775
     10 C7         -5.9401  -12.7206    2.5065 C.ar      1 <0>        -0.0783
     11 C8         -6.8444  -12.4749    1.4887 C.ar      1 <0>        -0.1062
     12 C9         -6.9408  -11.2095    0.9389 C.ar      1 <0>         0.0837
     13 F1         -7.8277  -10.9679   -0.0512 F         1 <0>        -0.1283
     14 Br1        -5.8157  -14.4500    3.2611 Br        1 <0>        -0.0290
     15 O2         -3.8711   -6.1868    0.0280 O.3       1 <0>        -0.3203
     16 C10        -3.8318   -4.8404    0.0464 C.2       1 <0>         0.5198
     17 O3         -4.8656   -4.2029    0.0643 O.2       1 <0>        -0.4814
     18 C11        -2.5314   -4.1392    0.0448 C.ar      1 <0>        -0.1278
     19 C12        -2.4890   -2.7462    0.0638 C.ar      1 <0>         0.0540
     20 C13        -1.2582   -2.0930    0.0617 C.ar      1 <0>        -0.1277
     21 C14        -0.0757   -2.8375    0.0351 C.ar      1 <0>         0.0334
     22 C15        -0.1250   -4.2171    0.0222 C.ar      1 <0>        -0.0633
     23 C16        -1.3413   -4.8709    0.0237 C.ar      1 <0>         0.0339
     24 N2          1.1316   -4.9989    0.0003 N.pl3     1 <0>         0.0249
     25 O4          1.0913   -6.2162   -0.0163 O.2       1 <0>        -0.1386
     26 O5          2.2060   -4.4251   -0.0011 O.3       1 <0>        -0.1414
     27 C17        -1.2035   -0.6167    0.0812 C.2       1 <0>         0.5142
     28 O6         -2.2321    0.0290    0.0992 O.2       1 <0>        -0.4846
     29 O7         -0.0127    0.0132    0.0791 O.3       1 <0>        -0.3504
     30 C18        -0.0349    1.4649    0.0990 C.3       1 <0>         0.0366
     31 H2         -6.6421   -7.4727   -1.4083 H         1 <0>         0.0877
     32 H3         -5.7138   -6.0394   -1.9104 H         1 <0>         0.0834
     33 H4         -4.9523   -7.6479   -1.9395 H         1 <0>         0.0801
     34 H5         -7.0683   -8.5671    0.5456 H         1 <0>         0.4188
     35 H6         -4.5779   -9.6462    2.7894 H         1 <0>         0.1594
     36 H7         -4.4215  -11.8987    3.7679 H         1 <0>         0.1472
     37 H8         -7.4787  -13.2705    1.1267 H         1 <0>         0.1525
     38 H9         -3.4059   -2.1757    0.0798 H         1 <0>         0.1757
     39 H10         0.8789   -2.3324    0.0293 H         1 <0>         0.1794
     40 H11        -1.3727   -5.9504    0.0090 H         1 <0>         0.1807
     41 H12         0.9870    1.8440    0.0950 H         1 <0>         0.1106
     42 H13        -0.5622    1.8323   -0.7814 H         1 <0>         0.0693
     43 H14        -0.5463    1.8082    0.9983 H         1 <0>         0.0693
@<TRIPOS>BOND
     1    1    2 1
     2    1   31 1
     3    1   32 1
     4    1   33 1
     5    2    3 1
     6    2    4 1
     7    2   15 1
     8    4    5 2
     9    4    6 am
    10    6    7 1
    11    6   34 1
    12    7   12 ar
    13    7    8 ar
    14    8    9 ar
    15    8   35 1
    16    9   10 ar
    17    9   36 1
    18   10   11 ar
    19   10   14 1
    20   11   12 ar
    21   11   37 1
    22   12   13 1
    23   15   16 1
    24   16   17 2
    25   16   18 1
    26   18   23 ar
    27   18   19 ar
    28   19   20 ar
    29   19   38 1
    30   20   21 ar
    31   20   27 1
    32   21   22 ar
    33   21   39 1
    34   22   23 ar
    35   22   24 1
    36   23   40 1
    37   24   25 2
    38   24   26 1
    39   27   28 2
    40   27   29 1
    41   29   30 1
    42   30   41 1
    43   30   42 1
    44   30   43 1
