@<TRIPOS>MOLECULE
ZINC03232716
   40    42     0     0     0
SMALL
USER_CHARGES
2-pyrrol-1-yl-N-[(2,3,4-trihydroxyphenyl)methyleneamino]benzamide
@<TRIPOS>ATOM
      1 C1          3.6518    2.1353    0.0842 C.ar      1 <0>        -0.1226
      2 C2          3.6364    3.5128   -0.0621 C.ar      1 <0>        -0.0727
      3 C3          2.4379    4.1924   -0.1522 C.ar      1 <0>        -0.1235
      4 C4          1.2384    3.4973   -0.0966 C.ar      1 <0>         0.1879
      5 C5          1.2500    2.1029    0.0513 C.ar      1 <0>        -0.1390
      6 C6          2.4698    1.4291    0.1466 C.ar      1 <0>        -0.0741
      7 C7         -0.0188    1.3526    0.1122 C.2       1 <0>         0.5664
      8 O1         -1.0732    1.9230   -0.0941 O.2       1 <0>        -0.4621
      9 N1         -0.0093    0.0340    0.3910 N.am      1 <0>        -0.5830
     10 N2         -1.2142   -0.6785    0.4488 N.2       1 <0>        -0.1954
     11 C8         -1.2050   -1.9489    0.7173 C.2       1 <0>         0.1002
     12 C9         -2.4719   -2.6980    0.7781 C.ar      1 <0>        -0.0805
     13 C10        -2.4648   -4.0657    1.0670 C.ar      1 <0>        -0.0663
     14 C11        -3.6512   -4.7646    1.1233 C.ar      1 <0>        -0.1442
     15 C12        -4.8575   -4.1155    0.8939 C.ar      1 <0>         0.1126
     16 C13        -4.8770   -2.7553    0.6056 C.ar      1 <0>         0.0476
     17 C14        -3.6888   -2.0410    0.5522 C.ar      1 <0>         0.1396
     18 O2         -3.7047   -0.7102    0.2767 O.3       1 <0>        -0.4634
     19 O3         -6.0616   -2.1239    0.3811 O.3       1 <0>        -0.4784
     20 O4         -6.0233   -4.8124    0.9518 O.3       1 <0>        -0.4855
     21 N3          0.0250    4.1831   -0.1881 N.pl3     1 <0>        -0.4101
     22 C15        -0.3564    4.9939   -1.2198 C.2       1 <0>        -0.0180
     23 C16        -1.5884    5.4692   -0.9484 C.2       1 <0>        -0.1838
     24 C17        -1.9803    4.9423    0.2993 C.2       1 <0>        -0.1995
     25 C18        -0.9759    4.1596    0.7420 C.2       1 <0>         0.0443
     26 H1          4.5944    1.6127    0.1534 H         1 <0>         0.1387
     27 H2          4.5674    4.0584   -0.1055 H         1 <0>         0.1403
     28 H3          2.4341    5.2664   -0.2664 H         1 <0>         0.1411
     29 H4          2.4868    0.3558    0.2651 H         1 <0>         0.1320
     30 H5          0.8318   -0.4217    0.5515 H         1 <0>         0.3821
     31 H6         -0.2685   -2.4562    0.8961 H         1 <0>         0.1240
     32 H7         -1.5294   -4.5747    1.2465 H         1 <0>         0.1414
     33 H8         -3.6430   -5.8211    1.3471 H         1 <0>         0.1422
     34 H9         -3.6451   -0.5030   -0.6660 H         1 <0>         0.3976
     35 H10        -6.4705   -1.7597    1.1782 H         1 <0>         0.3905
     36 H11        -6.4266   -4.8319    1.8305 H         1 <0>         0.3930
     37 H12         0.2270    5.2136   -2.1017 H         1 <0>         0.1583
     38 H13        -2.1674    6.1354   -1.5706 H         1 <0>         0.1366
     39 H14        -2.9143    5.1312    0.8075 H         1 <0>         0.1353
     40 H15        -0.9643    3.6092    1.6711 H         1 <0>         0.1501
@<TRIPOS>BOND
     1    1    6 ar
     2    1    2 ar
     3    1   26 1
     4    2    3 ar
     5    2   27 1
     6    3    4 ar
     7    3   28 1
     8    4    5 ar
     9    4   21 1
    10    5    6 ar
    11    5    7 1
    12    6   29 1
    13    7    8 2
    14    7    9 am
    15    9   10 1
    16    9   30 1
    17   10   11 2
    18   11   12 1
    19   11   31 1
    20   12   17 ar
    21   12   13 ar
    22   13   14 ar
    23   13   32 1
    24   14   15 ar
    25   14   33 1
    26   15   16 ar
    27   15   20 1
    28   16   17 ar
    29   16   19 1
    30   17   18 1
    31   18   34 1
    32   19   35 1
    33   20   36 1
    34   21   25 1
    35   21   22 1
    36   22   23 2
    37   22   37 1
    38   23   24 1
    39   23   38 1
    40   24   25 2
    41   24   39 1
    42   25   40 1
