@<TRIPOS>MOLECULE
ZINC39455994
   50    53     0     0     0
SMALL
USER_CHARGES

@<TRIPOS>ATOM
      1 C1         -0.0187    1.5258    0.0104 C.3       1 <0>        -0.1512
      2 C2          0.0021   -0.0041    0.0020 C.3       1 <0>         0.0613
      3 O1          0.6709   -0.4649   -1.1737 O.3       1 <0>        -0.3907
      4 C3          0.7457   -1.8880   -1.2798 C.3       1 <0>         0.3186
      5 H1         -0.2420   -2.3209   -1.1214 H         1 <0>         0.0900
      6 C4          1.2637   -2.2764   -2.6692 C.3       1 <0>        -0.1594
      7 C5          2.7085   -1.8693   -2.7950 C.2       1 <0>         0.3898
      8 O2          3.1574   -1.5736   -3.8843 O.2       1 <0>        -0.3963
      9 C6          3.5470   -1.8274   -1.6574 C.2       1 <0>         0.0524
     10 C7          3.0250   -2.1050   -0.4099 C.2       1 <0>         0.1039
     11 C8          3.8978   -2.0678    0.7764 C.ar      1 <0>         0.2041
     12 C9          5.2648   -1.7330    0.5865 C.ar      1 <0>        -0.1487
     13 C10         6.1300   -1.6814    1.6692 C.ar      1 <0>        -0.0203
     14 C11         5.6056   -1.9690    2.9394 C.ar      1 <0>        -0.0673
     15 C12         4.1855   -2.3085    3.0595 C.ar      1 <0>         0.1463
     16 N1          3.4131   -2.3383    1.9742 N.ar      1 <0>        -0.4707
     17 C13         3.6696   -2.5967    4.3367 C.ar      1 <0>        -0.0408
     18 C14         4.4928   -2.5523    5.4191 C.ar      1 <0>        -0.1257
     19 C15         5.8417   -2.2277    5.3020 C.ar      1 <0>        -0.0111
     20 C16         6.4028   -1.9397    4.0953 C.ar      1 <0>        -0.6197
     21 S1          8.1139   -1.5339    3.9849 S.o2      1 <0>         2.4851
     22 O3          8.1521   -0.3222    3.2435 O.2       1 <0>        -0.9255
     23 O4          8.5843   -1.5783    5.3251 O.2       1 <0>        -0.9389
     24 C17         8.8511   -2.8808    3.0190 C.3       1 <0>        -0.5750
     25 C18        10.3690   -2.6973    2.9637 C.3       1 <0>        -0.1430
     26 C19         8.5232   -4.2212    3.6800 C.3       1 <0>        -0.1403
     27 C20         5.7408   -1.4432   -0.7759 C.2       1 <0>         0.4968
     28 O5          6.9081   -1.1535   -0.9626 O.2       1 <0>        -0.5372
     29 N2          4.8891   -1.4983   -1.8145 N.am      1 <0>        -0.2710
     30 O6          5.3752   -1.2119   -3.1133 O.3       1 <0>        -0.5875
     31 N3          1.6839   -2.4118   -0.2751 N.pl3     1 <0>        -0.7338
     32 H2          1.0039    1.9031    0.0027 H         1 <0>         0.0628
     33 H3         -0.5459    1.8868   -0.8726 H         1 <0>         0.0606
     34 H4         -0.5289    1.8773    0.9072 H         1 <0>         0.0665
     35 H5          0.5293   -0.3651    0.8851 H         1 <0>         0.0538
     36 H6         -1.0205   -0.3814    0.0098 H         1 <0>         0.0438
     37 H7          1.1769   -3.3549   -2.8013 H         1 <0>         0.1159
     38 H8          0.6747   -1.7676   -3.4323 H         1 <0>         0.1078
     39 H9          7.1720   -1.4289    1.5396 H         1 <0>         0.1531
     40 H10         2.6270   -2.8510    4.4570 H         1 <0>         0.1424
     41 H11         4.0889   -2.7745    6.3958 H         1 <0>         0.1372
     42 H12         6.4573   -2.2036    6.1891 H         1 <0>         0.1466
     43 H13         8.4462   -2.8661    2.0071 H         1 <0>         0.1447
     44 H14        10.7738   -2.7120    3.9757 H         1 <0>         0.0740
     45 H15        10.8120   -3.5066    2.3834 H         1 <0>         0.0869
     46 H16        10.6026   -1.7424    2.4928 H         1 <0>         0.0748
     47 H17         8.9280   -4.2359    4.6920 H         1 <0>         0.0757
     48 H18         7.4417   -4.3519    3.7194 H         1 <0>         0.0710
     49 H19         8.9661   -5.0305    3.0997 H         1 <0>         0.0812
     50 H20         1.3694   -2.9584    0.4619 H         1 <0>         0.4072
@<TRIPOS>BOND
     1    1    2 1
     2    1   32 1
     3    1   33 1
     4    1   34 1
     5    2    3 1
     6    2   35 1
     7    2   36 1
     8    3    4 1
     9    4    5 1
    10    4   31 1
    11    4    6 1
    12    6    7 1
    13    6   37 1
    14    6   38 1
    15    7    8 2
    16    7    9 1
    17    9   29 1
    18    9   10 2
    19   10   11 1
    20   10   31 1
    21   11   16 ar
    22   11   12 ar
    23   12   13 ar
    24   12   27 1
    25   13   14 ar
    26   13   39 1
    27   14   20 ar
    28   14   15 ar
    29   15   16 ar
    30   15   17 ar
    31   17   18 ar
    32   17   40 1
    33   18   19 ar
    34   18   41 1
    35   19   20 ar
    36   19   42 1
    37   20   21 1
    38   21   22 2
    39   21   23 2
    40   21   24 1
    41   24   25 1
    42   24   26 1
    43   24   43 1
    44   25   44 1
    45   25   45 1
    46   25   46 1
    47   26   47 1
    48   26   48 1
    49   26   49 1
    50   27   28 2
    51   27   29 am
    52   29   30 1
    53   31   50 1
