@<TRIPOS>MOLECULE
ZINC06281898
   68    73     0     0     0
SMALL
USER_CHARGES
6-methyl-3-[(R)-(4-phenylpiperazin-1-yl)-[1-[[(2R)-tetrahydrofuran-2-yl]methyl]tetrazol-5-yl]methyl]-1H-quinolin-2-one
@<TRIPOS>ATOM
      1 C1          7.1633    2.2183    6.2799 C.3       1 <0>        -0.1220
      2 C2          6.3799    1.2607    5.4195 C.ar      1 <0>        -0.1038
      3 C3          6.1120   -0.0200    5.8838 C.ar      1 <0>        -0.0351
      4 C4          5.3975   -0.9122    5.1140 C.ar      1 <0>        -0.1593
      5 C5          4.9397   -0.5277    3.8578 C.ar      1 <0>         0.1967
      6 C6          5.2133    0.7715    3.3905 C.ar      1 <0>        -0.1513
      7 C7          5.9401    1.6604    4.1896 C.ar      1 <0>        -0.0459
      8 C8          4.7265    1.1670    2.0676 C.2       1 <0>         0.0720
      9 C9          4.0269    0.2632    1.3380 C.2       1 <0>        -0.2807
     10 C10         3.7747   -1.0255    1.8553 C.2       1 <0>         0.5422
     11 O1          3.1395   -1.8209    1.1850 O.2       1 <0>        -0.5211
     12 N1          4.2222   -1.3995    3.0668 N.am      1 <0>        -0.6155
     13 H1          4.0345   -2.2945    3.3903 H         1 <0>         0.4283
     14 C11         3.5116    0.6381   -0.0276 C.3       1 <0>         0.2166
     15 H2          3.8716    1.6326   -0.2914 H         1 <0>         0.1611
     16 C12         2.0046    0.6368   -0.0137 C.2       1 <0>         0.1059
     17 N2          1.2230   -0.4154   -0.0118 N.2       1 <0>        -0.2455
     18 N3          0.0021   -0.0041    0.0020 N.2       1 <0>        -0.0585
     19 N4         -0.0154    1.2832    0.0091 N.2       1 <0>        -0.0363
     20 N5          1.2001    1.7157   -0.0002 N.pl3     1 <0>        -0.2743
     21 C13         1.6248    3.1178    0.0029 C.3       1 <0>         0.0980
     22 C14         1.7868    3.5985    1.4463 C.3       1 <0>         0.0611
     23 H3          2.4787    2.9508    1.9847 H         1 <0>         0.0757
     24 C15         2.2884    5.0643    1.4720 C.3       1 <0>        -0.1478
     25 C16         1.7728    5.5281    2.8616 C.3       1 <0>        -0.1543
     26 C17         0.4466    4.7493    2.9956 C.3       1 <0>         0.0469
     27 O2          0.5124    3.6266    2.1085 O.3       1 <0>        -0.3665
     28 C18         5.4595   -0.4268   -0.9951 C.3       1 <0>         0.0039
     29 C19         5.9153   -1.5055   -1.9806 C.3       1 <0>         0.0284
     30 N6          5.4314   -1.1710   -3.3273 N.pl3     1 <0>        -0.4842
     31 C20         3.9648   -1.0794   -3.3491 C.3       1 <0>         0.0244
     32 C21         3.5090   -0.0008   -2.3635 C.3       1 <0>         0.0006
     33 C22         5.8891   -2.0965   -4.2679 C.ar      1 <0>         0.0860
     34 C23         4.9832   -2.7875   -5.0625 C.ar      1 <0>        -0.1622
     35 C24         5.4394   -3.6984   -5.9949 C.ar      1 <0>        -0.0909
     36 C25         6.7959   -3.9307   -6.1307 C.ar      1 <0>        -0.1259
     37 C26         7.7002   -3.2484   -5.3376 C.ar      1 <0>        -0.0929
     38 C27         7.2510   -2.3323   -4.4069 C.ar      1 <0>        -0.1287
     39 H4          6.4776    2.7855    6.9094 H         1 <0>         0.0787
     40 H5          7.8554    1.6586    6.9091 H         1 <0>         0.0753
     41 H6          7.7235    2.9035    5.6437 H         1 <0>         0.0734
     42 H7          6.4671   -0.3202    6.8586 H         1 <0>         0.1440
     43 H8          5.1944   -1.9062    5.4841 H         1 <0>         0.1447
     44 H9          6.1522    2.6584    3.8357 H         1 <0>         0.1428
     45 H10         4.9206    2.1567    1.6813 H         1 <0>         0.1581
     46 H11         2.5768    3.2103   -0.5199 H         1 <0>         0.1240
     47 H12         0.8733    3.7262   -0.5005 H         1 <0>         0.1370
     48 H13         3.3764    5.1081    1.4220 H         1 <0>         0.0934
     49 H14         1.8364    5.6483    0.6703 H         1 <0>         0.0928
     50 H15         1.5939    6.6032    2.8699 H         1 <0>         0.0942
     51 H16         2.4696    5.2464    3.6511 H         1 <0>         0.0817
     52 H17        -0.3891    5.3916    2.7178 H         1 <0>         0.0808
     53 H18         0.3232    4.4030    4.0217 H         1 <0>         0.0758
     54 H19         5.8882    0.5332   -1.2828 H         1 <0>         0.1444
     55 H20         5.7927   -0.6878    0.0094 H         1 <0>         0.1329
     56 H21         5.5089   -2.4703   -1.6774 H         1 <0>         0.0720
     57 H22         7.0042   -1.5551   -1.9874 H         1 <0>         0.1316
     58 H23         3.5362   -2.0394   -3.0613 H         1 <0>         0.0759
     59 H24         3.6313   -0.8186   -4.3535 H         1 <0>         0.1327
     60 H25         2.4202    0.0489   -2.3567 H         1 <0>         0.1281
     61 H26         3.9152    0.9642   -2.6667 H         1 <0>         0.1426
     62 H27         3.9234   -2.6098   -4.9540 H         1 <0>         0.1269
     63 H28         4.7359   -4.2330   -6.6159 H         1 <0>         0.1295
     64 H29         7.1498   -4.6469   -6.8575 H         1 <0>         0.1291
     65 H30         8.7588   -3.4324   -5.4459 H         1 <0>         0.1312
     66 H31         7.9577   -1.8000   -3.7876 H         1 <0>         0.1273
     67 N7          3.9831   -0.3606   -1.0105 N.4       1 <0>        -0.3927
     68 H32         3.6051   -1.2813   -0.7582 H         1 <0>         0.4466
@<TRIPOS>BOND
     1    1    2 1
     2    1   39 1
     3    1   40 1
     4    1   41 1
     5    2    7 ar
     6    2    3 ar
     7    3    4 ar
     8    3   42 1
     9    4    5 ar
    10    4   43 1
    11    5   12 1
    12    5    6 ar
    13    6    7 ar
    14    6    8 1
    15    7   44 1
    16    8    9 2
    17    8   45 1
    18    9   10 1
    19    9   14 1
    20   10   11 2
    21   10   12 am
    22   12   13 1
    23   14   15 1
    24   14   16 1
    25   14   67 1
    26   16   20 1
    27   16   17 2
    28   17   18 1
    29   18   19 2
    30   19   20 1
    31   20   21 1
    32   21   22 1
    33   21   46 1
    34   21   47 1
    35   22   23 1
    36   22   27 1
    37   22   24 1
    38   24   25 1
    39   24   48 1
    40   24   49 1
    41   25   26 1
    42   25   50 1
    43   25   51 1
    44   26   27 1
    45   26   52 1
    46   26   53 1
    47   28   29 1
    48   28   54 1
    49   28   55 1
    50   28   67 1
    51   29   30 1
    52   29   56 1
    53   29   57 1
    54   30   31 1
    55   30   33 1
    56   31   32 1
    57   31   58 1
    58   31   59 1
    59   32   60 1
    60   32   61 1
    61   32   67 1
    62   33   38 ar
    63   33   34 ar
    64   34   35 ar
    65   34   62 1
    66   35   36 ar
    67   35   63 1
    68   36   37 ar
    69   36   64 1
    70   37   38 ar
    71   37   65 1
    72   38   66 1
    73   67   68 1
