@<TRIPOS>MOLECULE
ZINC04430765
   45    47     0     0     0
SMALL
USER_CHARGES
dichloro-(2,3,4,5,6-pentahydroxyhexyl)BLAHdione
@<TRIPOS>ATOM
      1 C1         -7.7059    1.6435   -1.3388 C.ar      1 <0>         0.0105
      2 C2         -6.6223    0.9947   -1.9642 C.ar      1 <0>         0.0305
      3 C3         -5.3384    1.5841   -1.9084 C.ar      1 <0>         0.1997
      4 C4         -5.1642    2.7919   -1.2390 C.ar      1 <0>        -0.1371
      5 C5         -6.2418    3.4047   -0.6365 C.ar      1 <0>         0.0488
      6 C6         -7.5087    2.8248   -0.6902 C.ar      1 <0>        -0.0605
      7 Cl1        -8.8490    3.6172    0.0775 Cl        1 <0>        -0.0169
      8 Cl2        -6.0196    4.9111    0.1972 Cl        1 <0>        -0.0072
      9 N1         -4.2626    0.9679   -2.5124 N.pl3     1 <0>        -0.4350
     10 C7         -4.4704   -0.2109   -3.1636 C.2       1 <0>         0.4448
     11 N2         -3.4917   -0.8679   -3.7641 N.2       1 <0>        -0.5857
     12 C8         -3.7099   -2.0211   -4.3908 C.2       1 <0>         0.6824
     13 O1         -2.7621   -2.5689   -4.9260 O.2       1 <0>        -0.4977
     14 N3         -4.9079   -2.6174   -4.4702 N.am      1 <0>        -0.6840
     15 H1         -4.9921   -3.4849   -4.9604 H         1 <0>         0.4370
     16 C9         -6.0055   -2.0685   -3.9000 C.2       1 <0>         0.5853
     17 O2         -7.0932   -2.6073   -3.9707 O.2       1 <0>        -0.4505
     18 C10        -5.8256   -0.7845   -3.1874 C.2       1 <0>         0.0471
     19 N4         -6.8194   -0.1667   -2.6007 N.2       1 <0>        -0.2989
     20 C11        -2.9281    1.5699   -2.4602 C.3       1 <0>         0.0590
     21 C12        -2.1881    1.0631   -1.2207 C.3       1 <0>         0.0646
     22 H2         -2.1733   -0.0268   -1.2266 H         1 <0>         0.1150
     23 C13        -0.7527    1.5927   -1.2315 C.3       1 <0>         0.0600
     24 H3         -0.7675    2.6825   -1.2255 H         1 <0>         0.1058
     25 C14        -0.0127    1.0858    0.0080 C.3       1 <0>         0.0546
     26 H4          0.0021   -0.0041    0.0020 H         1 <0>         0.1040
     27 C15         1.4227    1.6154   -0.0028 C.3       1 <0>         0.0839
     28 H5          1.4079    2.7053    0.0031 H         1 <0>         0.1045
     29 C16         2.1627    1.1086    1.2367 C.3       1 <0>         0.0446
     30 O3          3.4644    1.6958    1.2876 O.3       1 <0>        -0.5654
     31 O4          2.0915    1.1546   -1.1786 O.3       1 <0>        -0.5285
     32 O5         -0.6816    1.5467    1.1837 O.3       1 <0>        -0.5304
     33 O6         -0.0838    1.1318   -2.4072 O.3       1 <0>        -0.5252
     34 O7         -2.8569    1.5239   -0.0449 O.3       1 <0>        -0.5281
     35 H6         -8.6919    1.2042   -1.3735 H         1 <0>         0.1749
     36 H7         -4.1865    3.2482   -1.1920 H         1 <0>         0.1602
     37 H8         -3.0206    2.6548   -2.4098 H         1 <0>         0.1067
     38 H9         -2.3698    1.2940   -3.3548 H         1 <0>         0.1409
     39 H10         1.6044    1.3845    2.1313 H         1 <0>         0.0623
     40 H11         2.2552    0.0237    1.1863 H         1 <0>         0.0474
     41 H12         3.9914    1.4187    2.0496 H         1 <0>         0.3818
     42 H13         2.1422    0.1915   -1.2503 H         1 <0>         0.3707
     43 H14        -0.7322    2.5097    1.2555 H         1 <0>         0.3743
     44 H15        -0.0332    0.1688   -2.4790 H         1 <0>         0.3815
     45 H16        -2.9076    2.4869    0.0268 H         1 <0>         0.3684
@<TRIPOS>BOND
     1    1    6 ar
     2    1    2 ar
     3    1   35 1
     4    2   19 1
     5    2    3 ar
     6    3    4 ar
     7    3    9 1
     8    4    5 ar
     9    4   36 1
    10    5    6 ar
    11    5    8 1
    12    6    7 1
    13    9   10 1
    14    9   20 1
    15   10   18 1
    16   10   11 2
    17   11   12 1
    18   12   13 2
    19   12   14 am
    20   14   15 1
    21   14   16 am
    22   16   17 2
    23   16   18 1
    24   18   19 2
    25   20   21 1
    26   20   37 1
    27   20   38 1
    28   21   22 1
    29   21   23 1
    30   21   34 1
    31   23   24 1
    32   23   25 1
    33   23   33 1
    34   25   26 1
    35   25   27 1
    36   25   32 1
    37   27   28 1
    38   27   29 1
    39   27   31 1
    40   29   30 1
    41   29   39 1
    42   29   40 1
    43   30   41 1
    44   31   42 1
    45   32   43 1
    46   33   44 1
    47   34   45 1
