@<TRIPOS>MOLECULE
ZINC00294893
   31    33     0     0     0
SMALL
USER_CHARGES

@<TRIPOS>ATOM
      1 C1         -0.0166    1.3754    0.0096 C.ar      1 <0>        -0.1663
      2 C2          1.1677    2.0955    0.0022 C.ar      1 <0>        -0.0521
      3 C3          2.3861    1.4438   -0.0117 C.ar      1 <0>        -0.1806
      4 C4          2.4225    0.0602   -0.0185 C.ar      1 <0>         0.2277
      5 C5          1.2229   -0.6737   -0.0136 C.ar      1 <0>        -0.1992
      6 C6          0.0021   -0.0041    0.0020 C.ar      1 <0>        -0.0216
      7 C7          1.3007   -2.1456   -0.0308 C.2       1 <0>         0.5749
      8 O1          0.3131   -2.8108   -0.2779 O.2       1 <0>        -0.5236
      9 N1          2.4802   -2.7465    0.2303 N.am      1 <0>        -0.7386
     10 C8          3.6600   -1.9682    0.6071 C.3       1 <0>         0.4299
     11 H1          4.5581   -2.4959    0.2859 H         1 <0>         0.1272
     12 N2          3.6207   -0.6449   -0.0272 N.pl3     1 <0>        -0.7481
     13 C9          3.6891   -1.7995    2.1044 C.ar      1 <0>        -0.1301
     14 C10         4.2596   -0.6703    2.6619 C.ar      1 <0>        -0.0409
     15 C11         4.2863   -0.5156    4.0350 C.ar      1 <0>        -0.1163
     16 C12         3.7420   -1.4899    4.8512 C.ar      1 <0>        -0.0480
     17 C13         3.1708   -2.6183    4.2938 C.ar      1 <0>        -0.0483
     18 C14         3.1403   -2.7711    2.9201 C.ar      1 <0>        -0.0345
     19 N3          2.5886   -3.6616    5.1676 N.pl3     1 <0>         0.0315
     20 O2          2.6126   -3.5267    6.3688 O.2       1 <0>        -0.1537
     21 O3          2.0889   -4.6487    4.6801 O.3       1 <0>        -0.1540
     22 H2         -0.9615    1.8983    0.0260 H         1 <0>         0.1306
     23 H3          1.1380    3.1751    0.0069 H         1 <0>         0.1308
     24 H4          3.3051    2.0111   -0.0175 H         1 <0>         0.1312
     25 H5         -0.9235   -0.5606    0.0081 H         1 <0>         0.1364
     26 H6          2.5469   -3.7121    0.1672 H         1 <0>         0.4130
     27 H7          4.4132   -0.2706   -0.4428 H         1 <0>         0.4179
     28 H8          4.6848    0.0907    2.0243 H         1 <0>         0.1448
     29 H9          4.7326    0.3662    4.4705 H         1 <0>         0.1512
     30 H10         3.7635   -1.3693    5.9242 H         1 <0>         0.1560
     31 H11         2.6907   -3.6511    2.4844 H         1 <0>         0.1529
@<TRIPOS>BOND
     1    1    6 ar
     2    1    2 ar
     3    1   22 1
     4    2    3 ar
     5    2   23 1
     6    3    4 ar
     7    3   24 1
     8    4   12 1
     9    4    5 ar
    10    5    6 ar
    11    5    7 1
    12    6   25 1
    13    7    8 2
    14    7    9 am
    15    9   10 1
    16    9   26 1
    17   10   11 1
    18   10   12 1
    19   10   13 1
    20   12   27 1
    21   13   18 ar
    22   13   14 ar
    23   14   15 ar
    24   14   28 1
    25   15   16 ar
    26   15   29 1
    27   16   17 ar
    28   16   30 1
    29   17   18 ar
    30   17   19 1
    31   18   31 1
    32   19   20 2
    33   19   21 1
