@<TRIPOS>MOLECULE
ZINC67495364
   45    46     0     0     0
SMALL
USER_CHARGES

@<TRIPOS>ATOM
      1 C1          0.0139    0.9553   -1.9405 C.3       1 <0>         0.0519
      2 O1         -0.1291   -0.4656   -1.8908 O.3       1 <0>        -0.3583
      3 C2         -1.2274   -0.9484   -1.2793 C.2       1 <0>         0.6512
      4 O2         -2.0421   -0.1841   -0.8011 O.2       1 <0>        -0.5495
      5 N1         -1.4231   -2.2794   -1.1978 N.am      1 <0>        -0.6466
      6 C3         -2.5138   -2.7841   -0.4782 C.ar      1 <0>         0.1488
      7 C4         -3.7162   -2.0931   -0.4647 C.ar      1 <0>        -0.1187
      8 C5         -4.7950   -2.5963    0.2495 C.ar      1 <0>         0.1546
      9 C6         -4.6680   -3.7903    0.9488 C.ar      1 <0>        -0.1103
     10 C7         -3.4692   -4.4770    0.9346 C.ar      1 <0>        -0.1089
     11 C8         -2.3940   -3.9816    0.2188 C.ar      1 <0>         0.0659
     12 F1         -1.2249   -4.6585    0.2019 F         1 <0>        -0.1330
     13 N2         -6.0083   -1.9019    0.2655 N.am      1 <0>        -0.6380
     14 C9         -7.1621   -2.5662    0.4751 C.2       1 <0>         0.5106
     15 O3         -7.1609   -3.7780    0.5440 O.2       1 <0>        -0.4956
     16 C10        -8.4422   -1.8111    0.6225 C.2       1 <0>         0.5093
     17 O4         -8.4434   -0.5995    0.5536 O.2       1 <0>        -0.5102
     18 N3         -9.5961   -2.4754    0.8321 N.am      1 <0>        -0.6972
     19 C11       -10.8517   -1.7347    0.9767 C.3       1 <0>         0.1190
     20 C12       -12.0010   -2.7188    1.2039 C.3       1 <0>        -0.1433
     21 C13       -13.3124   -1.9453    1.3549 C.3       1 <0>         0.0829
     22 H1        -13.2115   -1.1964    2.1404 H         1 <0>         0.0858
     23 C14       -14.4579   -2.9196    1.7044 C.3       1 <0>        -0.1513
     24 C15       -15.6401   -2.3500    0.8738 C.3       1 <0>        -0.1579
     25 C16       -14.8937   -1.8257   -0.3788 C.3       1 <0>         0.0485
     26 O5        -13.6463   -1.3084    0.1162 O.3       1 <0>        -0.3766
     27 H2          0.9386    1.2095   -2.4587 H         1 <0>         0.1088
     28 H3         -0.8324    1.3872   -2.4747 H         1 <0>         0.0650
     29 H4          0.0447    1.3532   -0.9262 H         1 <0>         0.0650
     30 H5         -0.8087   -2.8878   -1.6373 H         1 <0>         0.4237
     31 H6         -3.8130   -1.1651   -1.0086 H         1 <0>         0.1582
     32 H7         -5.5073   -4.1818    1.5045 H         1 <0>         0.1568
     33 H8         -3.3728   -5.4044    1.4795 H         1 <0>         0.1499
     34 H9         -6.0197   -0.9421    0.1257 H         1 <0>         0.4280
     35 H10        -9.5951   -3.4438    0.8872 H         1 <0>         0.4135
     36 H11       -10.7787   -1.0585    1.8285 H         1 <0>         0.0756
     37 H12       -11.0403   -1.1588    0.0707 H         1 <0>         0.0840
     38 H13       -12.0741   -3.3950    0.3521 H         1 <0>         0.0782
     39 H14       -11.8125   -3.2948    2.1099 H         1 <0>         0.0833
     40 H15       -14.2146   -3.9339    1.3878 H         1 <0>         0.0799
     41 H16       -14.6822   -2.8882    2.7706 H         1 <0>         0.0847
     42 H17       -16.3484   -3.1350    0.6091 H         1 <0>         0.0844
     43 H18       -16.1369   -1.5374    1.4038 H         1 <0>         0.0798
     44 H19       -14.7145   -2.6400   -1.0808 H         1 <0>         0.0611
     45 H20       -15.4682   -1.0324   -0.8571 H         1 <0>         0.0867
@<TRIPOS>BOND
     1    1    2 1
     2    1   27 1
     3    1   28 1
     4    1   29 1
     5    2    3 1
     6    3    4 2
     7    3    5 am
     8    5    6 1
     9    5   30 1
    10    6   11 ar
    11    6    7 ar
    12    7    8 ar
    13    7   31 1
    14    8    9 ar
    15    8   13 1
    16    9   10 ar
    17    9   32 1
    18   10   11 ar
    19   10   33 1
    20   11   12 1
    21   13   14 am
    22   13   34 1
    23   14   15 2
    24   14   16 1
    25   16   17 2
    26   16   18 am
    27   18   19 1
    28   18   35 1
    29   19   20 1
    30   19   36 1
    31   19   37 1
    32   20   21 1
    33   20   38 1
    34   20   39 1
    35   21   22 1
    36   21   26 1
    37   21   23 1
    38   23   24 1
    39   23   40 1
    40   23   41 1
    41   24   25 1
    42   24   42 1
    43   24   43 1
    44   25   26 1
    45   25   44 1
    46   25   45 1
