@<TRIPOS>MOLECULE
ZINC20595768
   49    51     0     0     0
SMALL
USER_CHARGES
2-[[5-(N'-cyclohexylidenehydrazino)-4H-1,2,4-triazol-3-yl]sulfanyl]-N-(5-propylsulfanyl-1,3,4-thiadiazol-2-yl)acetamide
@<TRIPOS>ATOM
      1 C1         -1.8940    6.3908   -1.5598 C.3       1 <0>        -0.1488
      2 C2         -0.4856    5.8265   -1.7567 C.3       1 <0>        -0.1106
      3 C3         -0.5193    4.3049   -1.6005 C.3       1 <0>        -0.1143
      4 S1          1.1505    3.6358   -1.8339 S.3       1 <0>         0.0440
      5 C4          0.9465    1.8981   -1.6258 C.2       1 <0>         0.0155
      6 N1         -0.1444    1.1941   -1.3611 N.2       1 <0>        -0.2574
      7 N2         -0.1155   -0.0613   -1.2429 N.2       1 <0>        -0.2731
      8 C5          1.0046   -0.7525   -1.3758 C.2       1 <0>         0.2891
      9 S2          2.1538    0.5787   -1.7126 S.3       1 <0>         0.0407
     10 N3          1.2267   -2.1241   -1.2804 N.am      1 <0>        -0.6215
     11 C6          0.2002   -2.9561   -1.0147 C.2       1 <0>         0.5350
     12 O1         -0.9170   -2.5103   -0.8587 O.2       1 <0>        -0.4507
     13 C7          0.4405   -4.4403   -0.9116 C.3       1 <0>        -0.1607
     14 S3         -1.1246   -5.2824   -0.5485 S.3       1 <0>         0.1216
     15 C8         -0.6817   -6.9855   -0.4600 C.2       1 <0>         0.2091
     16 N4         -1.5319   -8.0241   -0.2055 N.2       1 <0>        -0.5539
     17 C9         -0.8032   -9.1806   -0.2226 C.2       1 <0>         0.5433
     18 N5          0.4445   -8.8695   -0.4769 N.pl3     1 <0>        -0.4766
     19 N6          0.5209   -7.4793   -0.6325 N.2       1 <0>        -0.3305
     20 N7         -1.2979  -10.4601   -0.0086 N.pl3     1 <0>        -0.5659
     21 N8         -0.4339  -11.5620   -0.0552 N.2       1 <0>        -0.2597
     22 C10        -0.9046  -12.7488    0.0392 C.2       1 <0>         0.1189
     23 C11        -2.3975  -12.9919    0.0603 C.3       1 <0>        -0.1234
     24 C12        -2.7285  -14.0551   -0.9987 C.3       1 <0>        -0.1111
     25 C13        -1.8835  -15.3042   -0.7431 C.3       1 <0>        -0.1257
     26 C14        -0.4006  -14.9717   -0.9172 C.3       1 <0>        -0.1179
     27 C15         0.0180  -13.9435    0.1389 C.3       1 <0>        -0.0624
     28 H1         -1.8697    7.4848   -1.6721 H         1 <0>         0.0650
     29 H2         -2.2546    6.1335   -0.5530 H         1 <0>         0.0602
     30 H3         -2.5702    5.9598   -2.3128 H         1 <0>         0.0602
     31 H4         -0.1250    6.0838   -2.7635 H         1 <0>         0.0761
     32 H5          0.1907    6.2575   -1.0038 H         1 <0>         0.0761
     33 H6         -0.8799    4.0476   -0.5937 H         1 <0>         0.1006
     34 H7         -1.1955    3.8739   -2.3534 H         1 <0>         0.1006
     35 H8          2.2399   -2.5284   -1.4219 H         1 <0>         0.4608
     36 H9          0.8452   -4.8132   -1.8640 H         1 <0>         0.1326
     37 H10         1.1603   -4.6400   -0.1041 H         1 <0>         0.1327
     38 H11        -2.3681  -10.6087    0.1975 H         1 <0>         0.4350
     39 H12        -2.6971  -13.3468    1.0574 H         1 <0>         0.0952
     40 H13        -2.9250  -12.0542   -0.1690 H         1 <0>         0.0712
     41 H14        -3.7959  -14.3139   -0.9373 H         1 <0>         0.0749
     42 H15        -2.5046  -13.6578   -1.9997 H         1 <0>         0.0661
     43 H16        -2.0580  -15.6613    0.2826 H         1 <0>         0.0692
     44 H17        -2.1661  -16.0907   -1.4583 H         1 <0>         0.0707
     45 H18         0.1971  -15.8871   -0.7957 H         1 <0>         0.0775
     46 H19        -0.2336  -14.5554   -1.9216 H         1 <0>         0.0674
     47 H20         1.0546  -13.6222   -0.0406 H         1 <0>         0.0859
     48 H21        -0.0604  -14.3845    1.1436 H         1 <0>         0.0948
     49 H22         1.2080   -9.6595   -0.5324 H         1 <0>         0.4745
@<TRIPOS>BOND
     1    1    2 1
     2    1   28 1
     3    1   29 1
     4    1   30 1
     5    2    3 1
     6    2   31 1
     7    2   32 1
     8    3    4 1
     9    3   33 1
    10    3   34 1
    11    4    5 1
    12    5    9 1
    13    5    6 2
    14    6    7 1
    15    7    8 2
    16    8    9 1
    17    8   10 1
    18   10   11 am
    19   10   35 1
    20   11   12 2
    21   11   13 1
    22   13   14 1
    23   13   36 1
    24   13   37 1
    25   14   15 1
    26   15   19 2
    27   15   16 1
    28   16   17 2
    29   17   18 1
    30   17   20 1
    31   18   19 1
    32   18   49 1
    33   20   21 1
    34   20   38 1
    35   21   22 2
    36   22   27 1
    37   22   23 1
    38   23   24 1
    39   23   39 1
    40   23   40 1
    41   24   25 1
    42   24   41 1
    43   24   42 1
    44   25   26 1
    45   25   43 1
    46   25   44 1
    47   26   27 1
    48   26   45 1
    49   26   46 1
    50   27   47 1
    51   27   48 1
