@<TRIPOS>MOLECULE
ZINC58819077
   43    46     0     0     0
SMALL
USER_CHARGES

@<TRIPOS>ATOM
      1 C1          0.0244    1.4698    0.0828 C.ar      1 <0>        -0.1335
      2 C2          1.1978    2.1698    0.0597 C.ar      1 <0>        -0.0378
      3 C3          2.4138    1.4829    0.0376 C.ar      1 <0>        -0.1390
      4 C4          3.8169    1.8948    0.0114 C.2       1 <0>        -0.0930
      5 C5          4.5453    0.7486   -0.0006 C.2       1 <0>        -0.0330
      6 O1          3.7180   -0.3174    0.0159 O.3       1 <0>        -0.1750
      7 C6          2.4295    0.0756    0.0391 C.ar      1 <0>         0.0962
      8 C7          1.2228   -0.6153    0.0614 C.ar      1 <0>        -0.0900
      9 C8          0.0331    0.0820    0.0844 C.ar      1 <0>        -0.0472
     10 Br1         1.2132   -2.5063    0.0633 Br        1 <0>        -0.0318
     11 C9          6.0132    0.6796   -0.0279 C.2       1 <0>         0.6036
     12 O2          6.6701    1.7035   -0.0416 O.2       1 <0>        -0.5000
     13 N1          6.6315   -0.5179   -0.0377 N.am      1 <0>        -0.7140
     14 C10         8.0946   -0.5867   -0.0649 C.3       1 <0>         0.2062
     15 H1          8.5035    0.2395    0.5168 H         1 <0>         0.1107
     16 C11         8.5473   -1.9082    0.5518 C.3       1 <0>        -0.1319
     17 C12        10.0542   -2.0586    0.3089 C.3       1 <0>        -0.1117
     18 C13        10.2767   -2.2882   -1.1840 C.3       1 <0>        -0.1008
     19 C14         9.5631   -1.2380   -1.9980 C.2       1 <0>         0.2118
     20 C15         8.5702   -0.4732   -1.4901 C.2       1 <0>        -0.2147
     21 C16         7.9371    0.4777   -2.3029 C.2       1 <0>         0.0703
     22 C17         8.3382    0.6297   -3.6250 C.2       1 <0>        -0.2817
     23 C18         9.3886   -0.1909   -4.1116 C.2       1 <0>         0.5398
     24 O3          9.7681   -0.0828   -5.2648 O.2       1 <0>        -0.5443
     25 N2          9.9614   -1.0847   -3.2930 N.am      1 <0>        -0.6022
     26 H2         10.6804   -1.6401   -3.6330 H         1 <0>         0.4196
     27 C19         7.6885    1.6178   -4.4995 C.2       1 <0>         0.5818
     28 O4          6.7209    2.2388   -4.1020 O.2       1 <0>        -0.5502
     29 N3          8.1652    1.8353   -5.7413 N.am      1 <0>        -0.8443
     30 H3         -0.9162    2.0002    0.1044 H         1 <0>         0.1446
     31 H4          1.1850    3.2498    0.0582 H         1 <0>         0.1415
     32 H5          4.1968    2.9057    0.0029 H         1 <0>         0.1774
     33 H6         -0.9020   -0.4579    0.1031 H         1 <0>         0.1488
     34 H7          6.1077   -1.3343   -0.0268 H         1 <0>         0.4118
     35 H8          8.3463   -1.9021    1.6231 H         1 <0>         0.0889
     36 H9          8.0147   -2.7349    0.0818 H         1 <0>         0.0800
     37 H10        10.5695   -1.1506    0.6220 H         1 <0>         0.0803
     38 H11        10.4342   -2.9107    0.8725 H         1 <0>         0.0909
     39 H12        11.3445   -2.2443   -1.3986 H         1 <0>         0.0973
     40 H13         9.8968   -3.2729   -1.4562 H         1 <0>         0.1038
     41 H14         7.1418    1.0895   -1.9035 H         1 <0>         0.1578
     42 H15         8.8894    1.2894   -6.0853 H         1 <0>         0.4142
     43 H16         7.7839    2.5377   -6.2910 H         1 <0>         0.3988
@<TRIPOS>BOND
     1    1    9 ar
     2    1    2 ar
     3    1   30 1
     4    2    3 ar
     5    2   31 1
     6    3    7 ar
     7    3    4 1
     8    4    5 2
     9    4   32 1
    10    5    6 1
    11    5   11 1
    12    6    7 1
    13    7    8 ar
    14    8    9 ar
    15    8   10 1
    16    9   33 1
    17   11   12 2
    18   11   13 am
    19   13   14 1
    20   13   34 1
    21   14   15 1
    22   14   20 1
    23   14   16 1
    24   16   17 1
    25   16   35 1
    26   16   36 1
    27   17   18 1
    28   17   37 1
    29   17   38 1
    30   18   19 1
    31   18   39 1
    32   18   40 1
    33   19   25 1
    34   19   20 2
    35   20   21 1
    36   21   22 2
    37   21   41 1
    38   22   23 1
    39   22   27 1
    40   23   24 2
    41   23   25 am
    42   25   26 1
    43   27   28 2
    44   27   29 am
    45   29   42 1
    46   29   43 1
