@<TRIPOS>MOLECULE
ZINC11035575
   36    37     0     0     0
SMALL
USER_CHARGES
N'-[2-(2,4-dibromophenoxy)acetyl]-3-nitro-benzohydrazide
@<TRIPOS>ATOM
      1 C1          1.1777    1.7807    0.0004 C.ar      1 <0>        -0.1162
      2 C2          1.1660    3.1604    0.0074 C.ar      1 <0>        -0.0365
      3 C3         -0.0501    3.8447    0.0227 C.ar      1 <0>        -0.1270
      4 C4         -1.2476    3.1273    0.0308 C.ar      1 <0>         0.0075
      5 C5         -1.2220    1.7483    0.0174 C.ar      1 <0>        -0.0484
      6 C6         -0.0126    1.0758    0.0080 C.ar      1 <0>        -0.0250
      7 N1         -2.4908    0.9860    0.0193 N.pl3     1 <0>         0.0245
      8 O1         -2.4696   -0.2318    0.0125 O.2       1 <0>        -0.1484
      9 O2         -3.5560    1.5765    0.0275 O.3       1 <0>        -0.1472
     10 C7         -0.0702    5.3230    0.0299 C.2       1 <0>         0.5671
     11 O3         -1.1310    5.9164    0.0432 O.2       1 <0>        -0.5183
     12 N2          1.0877    6.0127    0.0216 N.am      1 <0>        -0.5124
     13 N3          1.0687    7.4136    0.0284 N.am      1 <0>        -0.5171
     14 C8          2.2265    8.1033    0.0202 C.2       1 <0>         0.5195
     15 O4          3.2850    7.5113    0.0069 O.2       1 <0>        -0.5031
     16 C9          2.2061    9.6102    0.0275 C.3       1 <0>         0.0484
     17 O5          3.5467   10.1048    0.0165 O.3       1 <0>        -0.2713
     18 C10         3.7065   11.4547    0.0212 C.ar      1 <0>         0.1696
     19 C11         2.5958   12.2855    0.0362 C.ar      1 <0>        -0.1990
     20 C12         2.7602   13.6571    0.0409 C.ar      1 <0>        -0.0323
     21 C13         4.0316   14.2028    0.0313 C.ar      1 <0>        -0.1242
     22 C14         5.1410   13.3767    0.0160 C.ar      1 <0>        -0.0217
     23 C15         4.9812   12.0036    0.0169 C.ar      1 <0>        -0.1192
     24 Br1         6.4979   10.8743    0.0050 Br        1 <0>        -0.0141
     25 Br2         4.2531   16.0808    0.0385 Br        1 <0>        -0.0318
     26 H1          2.1182    1.2499   -0.0115 H         1 <0>         0.1607
     27 H2          2.0960    3.7096    0.0008 H         1 <0>         0.1484
     28 H3         -2.1921    3.6510    0.0426 H         1 <0>         0.1704
     29 H4          0.0021   -0.0041    0.0020 H         1 <0>         0.1636
     30 H5          1.9342    5.5392    0.0110 H         1 <0>         0.4341
     31 H6          0.2221    7.8871    0.0390 H         1 <0>         0.4370
     32 H7          1.6786    9.9706   -0.8556 H         1 <0>         0.1084
     33 H8          1.6962    9.9623    0.9242 H         1 <0>         0.1084
     34 H9          1.6031   11.8603    0.0444 H         1 <0>         0.1477
     35 H10         1.8955   14.3041    0.0526 H         1 <0>         0.1459
     36 H11         6.1325   13.8047    0.0085 H         1 <0>         0.1517
@<TRIPOS>BOND
     1    1    6 ar
     2    1    2 ar
     3    1   26 1
     4    2    3 ar
     5    2   27 1
     6    3    4 ar
     7    3   10 1
     8    4    5 ar
     9    4   28 1
    10    5    6 ar
    11    5    7 1
    12    6   29 1
    13    7    8 2
    14    7    9 1
    15   10   11 2
    16   10   12 am
    17   12   13 1
    18   12   30 1
    19   13   14 am
    20   13   31 1
    21   14   15 2
    22   14   16 1
    23   16   17 1
    24   16   32 1
    25   16   33 1
    26   17   18 1
    27   18   23 ar
    28   18   19 ar
    29   19   20 ar
    30   19   34 1
    31   20   21 ar
    32   20   35 1
    33   21   22 ar
    34   21   25 1
    35   22   23 ar
    36   22   36 1
    37   23   24 1
