@<TRIPOS>MOLECULE
ZINC13200368
   48    50     0     0     0
SMALL
USER_CHARGES
2-[3-[(1R)-2-[(2,3-dichlorophenyl)amino]-1-methyl-2-oxo-ethyl]sulfanyl-5-(4-methoxyphenyl)-1,2,4-triazol-4-yl]acetic acid
@<TRIPOS>ATOM
      1 C1         -3.7289   -1.5348   -3.3664 C.3       1 <0>        -0.1453
      2 C2         -4.2216   -0.0940   -3.5153 C.3       1 <0>        -0.1115
      3 H1         -5.2237   -0.0075   -3.0954 H         1 <0>         0.1251
      4 C3         -4.2551    0.2770   -4.9756 C.2       1 <0>         0.5434
      5 O1         -3.3130    0.8537   -5.4765 O.2       1 <0>        -0.4910
      6 N1         -5.3320   -0.0320   -5.7248 N.am      1 <0>        -0.6617
      7 C4         -5.3197    0.2138   -7.1028 C.ar      1 <0>         0.1797
      8 C5         -4.1130    0.2810   -7.7868 C.ar      1 <0>        -0.1181
      9 C6         -4.1033    0.5232   -9.1465 C.ar      1 <0>        -0.0770
     10 C7         -5.2935    0.6988   -9.8283 C.ar      1 <0>        -0.1207
     11 C8         -6.4983    0.6331   -9.1509 C.ar      1 <0>        -0.0093
     12 C9         -6.5148    0.3851   -7.7900 C.ar      1 <0>        -0.0704
     13 Cl1        -8.0264    0.2954   -6.9409 Cl        1 <0>        -0.0439
     14 Cl2        -7.9901    0.8547  -10.0106 Cl        1 <0>        -0.0469
     15 S1         -3.1002    1.0211   -2.6351 S.3       1 <0>         0.0805
     16 C10        -3.3635    0.4762   -0.9802 C.2       1 <0>         0.1463
     17 N2         -4.1710   -0.4863   -0.5958 N.2       1 <0>        -0.2971
     18 N3         -4.1235   -0.6185    0.6816 N.2       1 <0>        -0.2835
     19 C11        -3.2790    0.2479    1.1909 C.2       1 <0>         0.2422
     20 N4         -2.7636    0.9737    0.1420 N.pl3     1 <0>        -0.4163
     21 C12        -1.7812    2.0581    0.2139 C.3       1 <0>         0.0415
     22 C13        -0.3910    1.4765    0.2270 C.2       1 <0>         0.4542
     23 O2         -0.2367    0.2790    0.1810 O.co2     1 <0>        -0.6054
     24 C14        -2.9453    0.4129    2.6214 C.ar      1 <0>        -0.0480
     25 C15        -3.7821   -0.1235    3.6018 C.ar      1 <0>        -0.0381
     26 C16        -3.4648    0.0284    4.9346 C.ar      1 <0>        -0.2125
     27 C17        -2.3199    0.7226    5.3029 C.ar      1 <0>         0.1347
     28 C18        -1.4879    1.2625    4.3310 C.ar      1 <0>        -0.1449
     29 C19        -1.7954    1.1105    2.9959 C.ar      1 <0>        -0.0604
     30 O3         -2.0131    0.8743    6.6179 O.3       1 <0>        -0.3161
     31 C20        -2.9120    0.2938    7.5649 C.3       1 <0>         0.0267
     32 H2         -2.7268   -1.6214   -3.7864 H         1 <0>         0.0736
     33 H3         -3.7047   -1.8032   -2.3102 H         1 <0>         0.0985
     34 H4         -4.4042   -2.2064   -3.8965 H         1 <0>         0.0681
     35 H5         -6.1155   -0.4247   -5.3092 H         1 <0>         0.4182
     36 H6         -3.1826    0.1445   -7.2557 H         1 <0>         0.1641
     37 H7         -3.1647    0.5758   -9.6781 H         1 <0>         0.1447
     38 H8         -5.2827    0.8880  -10.8915 H         1 <0>         0.1435
     39 H9         -1.9425    2.6347    1.1248 H         1 <0>         0.1077
     40 H10        -1.8945    2.7091   -0.6530 H         1 <0>         0.1046
     41 H11        -4.6747   -0.6602    3.3162 H         1 <0>         0.1373
     42 H12        -4.1095   -0.3897    5.6935 H         1 <0>         0.1324
     43 H13        -0.5986    1.8020    4.6216 H         1 <0>         0.1376
     44 H14        -1.1478    1.5307    2.2406 H         1 <0>         0.1469
     45 H15        -2.9689   -0.7821    7.3997 H         1 <0>         0.0557
     46 H16        -2.5508    0.4876    8.5749 H         1 <0>         0.0978
     47 H17        -3.9021    0.7330    7.4426 H         1 <0>         0.0551
     48 O4          0.6759    2.2890    0.2842 O.co2     1 <0>        -0.7421
@<TRIPOS>BOND
     1    1    2 1
     2    1   32 1
     3    1   33 1
     4    1   34 1
     5    2    3 1
     6    2    4 1
     7    2   15 1
     8    4    5 2
     9    4    6 am
    10    6    7 1
    11    6   35 1
    12    7   12 ar
    13    7    8 ar
    14    8    9 ar
    15    8   36 1
    16    9   10 ar
    17    9   37 1
    18   10   11 ar
    19   10   38 1
    20   11   12 ar
    21   11   14 1
    22   12   13 1
    23   15   16 1
    24   16   20 1
    25   16   17 2
    26   17   18 1
    27   18   19 2
    28   19   20 1
    29   19   24 1
    30   20   21 1
    31   21   22 1
    32   21   39 1
    33   21   40 1
    34   22   23 2
    35   22   48 1
    36   24   29 ar
    37   24   25 ar
    38   25   26 ar
    39   25   41 1
    40   26   27 ar
    41   26   42 1
    42   27   28 ar
    43   27   30 1
    44   28   29 ar
    45   28   43 1
    46   29   44 1
    47   30   31 1
    48   31   45 1
    49   31   46 1
    50   31   47 1
