@<TRIPOS>MOLECULE
ZINC14387693
   42    43     0     0     0
SMALL
USER_CHARGES
(E)-N-[2-[(4-bromo-2-methyl-phenyl)amino]-2-oxo-ethyl]-3-(3-nitrophenyl)prop-2-enamide
@<TRIPOS>ATOM
      1 C1         -4.7816   13.9211    1.1921 C.3       1 <0>        -0.1177
      2 C2         -5.8258   13.0574    0.5326 C.ar      1 <0>        -0.1078
      3 C3         -7.1303   13.5013    0.4370 C.ar      1 <0>        -0.0700
      4 C4         -8.0906   12.7064   -0.1628 C.ar      1 <0>        -0.1028
      5 C5         -7.7461   11.4674   -0.6740 C.ar      1 <0>        -0.0741
      6 C6         -6.4423   11.0211   -0.5862 C.ar      1 <0>        -0.1210
      7 C7         -5.4763   11.8170    0.0159 C.ar      1 <0>         0.1595
      8 N1         -4.1541   11.3669    0.1067 N.am      1 <0>        -0.6631
      9 C8         -3.8897   10.0454    0.0931 C.2       1 <0>         0.5114
     10 O1         -4.8005    9.2445    0.1032 O.2       1 <0>        -0.5105
     11 C9         -2.4623    9.5629    0.0652 C.3       1 <0>         0.1016
     12 N2         -2.4421    8.0981    0.0548 N.am      1 <0>        -0.7150
     13 C10        -1.2659    7.4405    0.0300 C.2       1 <0>         0.5522
     14 O2         -0.2206    8.0635    0.0163 O.2       1 <0>        -0.5367
     15 C11        -1.2458    5.9764    0.0196 C.2       1 <0>        -0.1973
     16 C12        -0.0693    5.3186   -0.0052 C.2       1 <0>        -0.0197
     17 C13        -0.0490    3.8467   -0.0156 C.ar      1 <0>        -0.0700
     18 C14        -1.2481    3.1272    0.0005 C.ar      1 <0>        -0.0544
     19 C15        -1.2210    1.7488   -0.0143 C.ar      1 <0>        -0.1140
     20 C16        -0.0108    1.0770   -0.0340 C.ar      1 <0>        -0.0461
     21 C17         1.1799    1.7819   -0.0505 C.ar      1 <0>        -0.0429
     22 C18         1.1691    3.1609   -0.0413 C.ar      1 <0>        -0.0336
     23 N3          2.4683    1.0539   -0.0777 N.pl3     1 <0>         0.0250
     24 O3          2.4796   -0.1641   -0.0854 O.2       1 <0>        -0.1533
     25 O4          3.5173    1.6727   -0.0923 O.3       1 <0>        -0.1532
     26 Br1        -9.8771   13.3142   -0.2849 Br        1 <0>        -0.0473
     27 H1         -4.3190   14.5661    0.4451 H         1 <0>         0.0773
     28 H2         -5.2505   14.5344    1.9616 H         1 <0>         0.0775
     29 H3         -4.0201   13.2873    1.6466 H         1 <0>         0.0663
     30 H4         -7.4018   14.4680    0.8348 H         1 <0>         0.1382
     31 H5         -8.4977   10.8488   -1.1417 H         1 <0>         0.1372
     32 H6         -6.1741   10.0540   -0.9850 H         1 <0>         0.1539
     33 H7         -3.4281   12.0061    0.1794 H         1 <0>         0.4176
     34 H8         -1.9383    9.9272    0.9488 H         1 <0>         0.1072
     35 H9         -1.9689    9.9394   -0.8308 H         1 <0>         0.1087
     36 H10        -3.2753    7.6014    0.0657 H         1 <0>         0.4148
     37 H11        -2.1734    5.4234    0.0318 H         1 <0>         0.1349
     38 H12         0.8584    5.8715   -0.0173 H         1 <0>         0.1468
     39 H13        -2.1930    3.6499    0.0203 H         1 <0>         0.1487
     40 H14        -2.1462    1.1917   -0.0063 H         1 <0>         0.1538
     41 H15         0.0040   -0.0029   -0.0409 H         1 <0>         0.1576
     42 H16         2.0992    3.7097   -0.0542 H         1 <0>         0.1604
@<TRIPOS>BOND
     1    1    2 1
     2    1   27 1
     3    1   28 1
     4    1   29 1
     5    2    7 ar
     6    2    3 ar
     7    3    4 ar
     8    3   30 1
     9    4    5 ar
    10    4   26 1
    11    5    6 ar
    12    5   31 1
    13    6    7 ar
    14    6   32 1
    15    7    8 1
    16    8    9 am
    17    8   33 1
    18    9   10 2
    19    9   11 1
    20   11   12 1
    21   11   34 1
    22   11   35 1
    23   12   13 am
    24   12   36 1
    25   13   14 2
    26   13   15 1
    27   15   16 2
    28   15   37 1
    29   16   17 1
    30   16   38 1
    31   17   22 ar
    32   17   18 ar
    33   18   19 ar
    34   18   39 1
    35   19   20 ar
    36   19   40 1
    37   20   21 ar
    38   20   41 1
    39   21   22 ar
    40   21   23 1
    41   22   42 1
    42   23   24 2
    43   23   25 1
