@<TRIPOS>MOLECULE
ZINC41284518
   36    38     0     0     0
SMALL
USER_CHARGES

@<TRIPOS>ATOM
      1 C1         -0.0097    1.3619    0.0132 C.2       1 <0>        -0.0211
      2 C2          1.2027    2.0712   -0.0044 C.2       1 <0>        -0.1172
      3 C3          2.3785    1.4092   -0.0236 C.2       1 <0>         0.0893
      4 N1          2.4079    0.0447   -0.0266 N.pl3     1 <0>        -0.3246
      5 C4          3.4352   -0.8590   -0.0448 C.2       1 <0>        -0.0045
      6 C5          2.8824   -2.0918   -0.0387 C.2       1 <0>         0.1187
      7 N2          1.5536   -1.9631   -0.0175 N.pl3     1 <0>        -0.4985
      8 C6          1.2413   -0.6749   -0.0098 C.cat     1 <0>         0.3062
      9 C7          0.0052    0.0018    0.0108 C.2       1 <0>        -0.1235
     10 C8          3.6394   -3.3948   -0.0540 C.3       1 <0>        -0.0893
     11 C9          4.0216   -3.7702    1.3546 C.2       1 <0>         0.5075
     12 O1          3.7099   -3.0505    2.2798 O.2       1 <0>        -0.5227
     13 N3          4.7097   -4.9057    1.5862 N.am      1 <0>        -0.6491
     14 C10         5.1492   -5.2066    2.8824 C.ar      1 <0>         0.0855
     15 C11         4.3666   -4.8577    3.9790 C.ar      1 <0>        -0.1041
     16 C12         4.7903   -5.1495    5.2591 C.ar      1 <0>        -0.1554
     17 C13         6.0016   -5.7939    5.4628 C.ar      1 <0>         0.1422
     18 C14         6.7964   -6.1489    4.3628 C.ar      1 <0>        -0.1441
     19 C15         6.3569   -5.8546    3.0681 C.ar      1 <0>        -0.0814
     20 C16         8.0830   -6.8328    4.5698 C.2       1 <0>         0.5181
     21 O2          8.7736   -7.1410    3.6081 O.co2     1 <0>        -0.6887
     22 O3          8.4620   -7.0931    5.7035 O.co2     1 <0>        -0.6623
     23 O4          6.4168   -6.0796    6.7224 O.3       1 <0>        -0.4730
     24 H1         -0.9493    1.8941    0.0330 H         1 <0>         0.1735
     25 H2          1.1937    3.1512   -0.0030 H         1 <0>         0.1820
     26 H3          3.3048    1.9643   -0.0370 H         1 <0>         0.2003
     27 H4          4.4905   -0.6297   -0.0614 H         1 <0>         0.2274
     28 H5         -0.9207   -0.5539    0.0246 H         1 <0>         0.1780
     29 H6          3.0097   -4.1758   -0.4800 H         1 <0>         0.1304
     30 H7          4.5402   -3.2846   -0.6577 H         1 <0>         0.1478
     31 H8          4.9007   -5.5146    0.8557 H         1 <0>         0.4133
     32 H9          3.4226   -4.3555    3.8270 H         1 <0>         0.1292
     33 H10         4.1773   -4.8751    6.1049 H         1 <0>         0.1260
     34 H11         6.9609   -6.1289    2.2158 H         1 <0>         0.1352
     35 H12         6.1284   -6.9444    7.0450 H         1 <0>         0.3884
     36 H13         0.9180   -2.6958   -0.0091 H         1 <0>         0.4605
@<TRIPOS>BOND
     1    1    9 2
     2    1    2 1
     3    1   24 1
     4    2    3 2
     5    2   25 1
     6    3    4 1
     7    3   26 1
     8    4    8 1
     9    4    5 1
    10    5    6 2
    11    5   27 1
    12    6    7 1
    13    6   10 1
    14    7    8 2
    15    7   36 1
    16    8    9 1
    17    9   28 1
    18   10   11 1
    19   10   29 1
    20   10   30 1
    21   11   12 2
    22   11   13 am
    23   13   14 1
    24   13   31 1
    25   14   19 ar
    26   14   15 ar
    27   15   16 ar
    28   15   32 1
    29   16   17 ar
    30   16   33 1
    31   17   18 ar
    32   17   23 1
    33   18   19 ar
    34   18   20 1
    35   19   34 1
    36   20   21 2
    37   20   22 1
    38   23   35 1
