@<TRIPOS>MOLECULE
ZINC67567941
   51    53     0     0     0
SMALL
USER_CHARGES

@<TRIPOS>ATOM
      1 C1          0.0139    0.9553   -1.9405 C.3       1 <0>         0.0515
      2 O1         -0.1291   -0.4656   -1.8908 O.3       1 <0>        -0.3559
      3 C2         -1.2274   -0.9484   -1.2793 C.2       1 <0>         0.6529
      4 O2         -2.0421   -0.1841   -0.8011 O.2       1 <0>        -0.5518
      5 N1         -1.4231   -2.2794   -1.1978 N.am      1 <0>        -0.6477
      6 C3         -2.5138   -2.7841   -0.4782 C.ar      1 <0>         0.1519
      7 C4         -3.7162   -2.0931   -0.4647 C.ar      1 <0>        -0.1146
      8 C5         -4.7950   -2.5963    0.2495 C.ar      1 <0>         0.1447
      9 C6         -4.6680   -3.7903    0.9488 C.ar      1 <0>        -0.1084
     10 C7         -3.4692   -4.4770    0.9346 C.ar      1 <0>        -0.1096
     11 C8         -2.3940   -3.9816    0.2188 C.ar      1 <0>         0.0737
     12 F1         -1.2249   -4.6585    0.2019 F         1 <0>        -0.1289
     13 N2         -6.0083   -1.9019    0.2655 N.am      1 <0>        -0.6302
     14 C9         -7.1621   -2.5662    0.4751 C.2       1 <0>         0.5128
     15 O3         -7.1609   -3.7780    0.5440 O.2       1 <0>        -0.4902
     16 C10        -8.4422   -1.8111    0.6225 C.2       1 <0>         0.5339
     17 O4         -8.4434   -0.5995    0.5536 O.2       1 <0>        -0.4932
     18 N3         -9.5961   -2.4754    0.8321 N.am      1 <0>        -0.5974
     19 C11        -9.7368   -3.9346    0.9428 C.3       1 <0>         0.1045
     20 C12       -11.2356   -4.2358    1.1537 C.3       1 <0>        -0.1469
     21 C13       -11.9279   -2.9691    0.5849 C.3       1 <0>         0.0083
     22 H1        -12.0261   -3.0309   -0.4989 H         1 <0>         0.1572
     23 C14       -10.9252   -1.8586    0.9947 C.3       1 <0>         0.0973
     24 N4        -13.2361   -2.7548    1.2180 N.4       1 <0>        -0.3869
     25 C15       -13.9197   -1.5901    0.5996 C.3       1 <0>        -0.0084
     26 C16       -15.4123   -1.8365    0.9343 C.3       1 <0>        -0.1449
     27 C17       -15.5475   -3.3708    0.8022 C.3       1 <0>        -0.1448
     28 C18       -14.1177   -3.9167    0.9727 C.3       1 <0>        -0.0073
     29 H2          0.9386    1.2095   -2.4587 H         1 <0>         0.1110
     30 H3         -0.8324    1.3872   -2.4747 H         1 <0>         0.0652
     31 H4          0.0447    1.3532   -0.9262 H         1 <0>         0.0658
     32 H5         -0.8087   -2.8878   -1.6373 H         1 <0>         0.4256
     33 H6         -3.8130   -1.1651   -1.0086 H         1 <0>         0.1591
     34 H7         -5.5073   -4.1818    1.5045 H         1 <0>         0.1549
     35 H8         -3.3728   -5.4044    1.4795 H         1 <0>         0.1517
     36 H9         -6.0197   -0.9421    0.1257 H         1 <0>         0.4284
     37 H10        -9.3883   -4.4112    0.0265 H         1 <0>         0.0998
     38 H11        -9.1620   -4.2990    1.7943 H         1 <0>         0.1006
     39 H12       -11.5333   -5.1223    0.5939 H         1 <0>         0.1160
     40 H13       -11.4596   -4.3545    2.2138 H         1 <0>         0.1008
     41 H14       -11.0831   -1.5659    2.0327 H         1 <0>         0.0937
     42 H15       -11.0259   -0.9955    0.3367 H         1 <0>         0.1111
     43 H16       -13.5737   -0.6586    1.0476 H         1 <0>         0.1375
     44 H17       -13.7637   -1.5807   -0.4791 H         1 <0>         0.1358
     45 H18       -15.6377   -1.5155    1.9513 H         1 <0>         0.0992
     46 H19       -16.0572   -1.3292    0.2167 H         1 <0>         0.1182
     47 H20       -16.1977   -3.7620    1.5848 H         1 <0>         0.1064
     48 H21       -15.9378   -3.6330   -0.1811 H         1 <0>         0.1048
     49 H22       -13.8069   -4.4336    0.0648 H         1 <0>         0.1319
     50 H23       -14.0793   -4.5980    1.8227 H         1 <0>         0.1341
     51 H24       -13.1231   -2.6070    2.2097 H         1 <0>         0.4268
@<TRIPOS>BOND
     1    1    2 1
     2    1   29 1
     3    1   30 1
     4    1   31 1
     5    2    3 1
     6    3    4 2
     7    3    5 am
     8    5    6 1
     9    5   32 1
    10    6   11 ar
    11    6    7 ar
    12    7    8 ar
    13    7   33 1
    14    8    9 ar
    15    8   13 1
    16    9   10 ar
    17    9   34 1
    18   10   11 ar
    19   10   35 1
    20   11   12 1
    21   13   14 am
    22   13   36 1
    23   14   15 2
    24   14   16 1
    25   16   17 2
    26   16   18 am
    27   18   23 1
    28   18   19 1
    29   19   20 1
    30   19   37 1
    31   19   38 1
    32   20   21 1
    33   20   39 1
    34   20   40 1
    35   21   22 1
    36   21   23 1
    37   21   24 1
    38   23   41 1
    39   23   42 1
    40   24   28 1
    41   24   25 1
    42   24   51 1
    43   25   26 1
    44   25   43 1
    45   25   44 1
    46   26   27 1
    47   26   45 1
    48   26   46 1
    49   27   28 1
    50   27   47 1
    51   27   48 1
    52   28   49 1
    53   28   50 1
