@<TRIPOS>MOLECULE
ZINC12139578
   57    59     0     0     0
SMALL
USER_CHARGES
3-[4-hydroxy-3-[[(3S)-3-methyl-1,1-dioxo-thiolan-3-yl]carbamothioylamino]phenyl]-1-[(3S)-3-methyl-1,1-dioxo-thiolan-3-yl]thiourea
@<TRIPOS>ATOM
      1 C1         -3.1686    4.4732   -1.0606 C.3       1 <0>        -0.1816
      2 C2         -3.4502    3.1594   -1.7924 C.3       1 <0>         0.1867
      3 C3         -2.1417    2.6187   -2.3924 C.3       1 <0>        -0.1315
      4 C4         -2.4989    1.4719   -3.3825 C.3       1 <0>        -0.5887
      5 S1         -3.9894    2.1848   -4.1982 S.o2      1 <0>         2.3489
      6 O1         -4.9913    1.1811   -4.2888 O.2       1 <0>        -0.9346
      7 O2         -3.5871    2.8791   -5.3709 O.2       1 <0>        -0.9331
      8 C5         -4.4831    3.4091   -2.9177 C.3       1 <0>        -0.5771
      9 N1         -3.9901    2.1811   -0.8450 N.pl3     1 <0>        -0.6817
     10 C6         -5.1150    2.4593   -0.1568 C.2       1 <0>         0.5542
     11 S2         -5.9882    3.8943   -0.4877 S.2       1 <0>        -0.5858
     12 N2         -5.5526    1.6079    0.7919 N.pl3     1 <0>        -0.6211
     13 C7         -6.6556    1.9497    1.5851 C.ar      1 <0>         0.1244
     14 C8         -6.7725    3.2365    2.0938 C.ar      1 <0>        -0.0427
     15 C9         -7.8626    3.5779    2.8718 C.ar      1 <0>        -0.1291
     16 C10        -8.8359    2.6341    3.1558 C.ar      1 <0>         0.1180
     17 C11        -8.7192    1.3406    2.6521 C.ar      1 <0>         0.1025
     18 C12        -7.6281    1.0006    1.8669 C.ar      1 <0>        -0.0568
     19 N3         -9.7025    0.3847    2.9388 N.pl3     1 <0>        -0.6165
     20 C13        -9.3440   -0.8569    3.3215 C.2       1 <0>         0.5554
     21 S3         -7.6913   -1.2362    3.5573 S.2       1 <0>        -0.5960
     22 N4        -10.2866   -1.7998    3.5187 N.pl3     1 <0>        -0.6806
     23 C14        -9.9095   -3.1135    4.0460 C.3       1 <0>         0.1870
     24 C15       -11.1687   -3.9828    4.1992 C.3       1 <0>        -0.1314
     25 C16       -11.6430   -4.4029    2.7787 C.3       1 <0>        -0.5888
     26 S4        -10.0246   -4.7668    1.9768 S.o2      1 <0>         2.3499
     27 O3         -9.7314   -6.1484    2.1334 O.2       1 <0>        -0.9327
     28 O4        -10.0131   -4.1926    0.6771 O.2       1 <0>        -0.9346
     29 C17        -8.9165   -3.7924    3.0721 C.3       1 <0>        -0.5793
     30 C18        -9.2427   -2.9400    5.4121 C.3       1 <0>        -0.1802
     31 O5         -9.9053    2.9702    3.9269 O.3       1 <0>        -0.4950
     32 H1         -4.1093    4.9143   -0.7311 H         1 <0>         0.1220
     33 H2         -2.5357    4.2784   -0.1949 H         1 <0>         0.0608
     34 H3         -2.6603    5.1628   -1.7345 H         1 <0>         0.0772
     35 H4         -1.6239    3.4162   -2.9253 H         1 <0>         0.1170
     36 H5         -1.5038    2.2329   -1.5972 H         1 <0>         0.1082
     37 H6         -2.7428    0.5529   -2.8496 H         1 <0>         0.1345
     38 H7         -1.6968    1.3070   -4.1020 H         1 <0>         0.1475
     39 H8         -4.3980    4.4257   -3.3018 H         1 <0>         0.1589
     40 H9         -5.4951    3.2118   -2.5641 H         1 <0>         0.1756
     41 H10        -3.5380    1.3331   -0.7129 H         1 <0>         0.4045
     42 H11        -5.1038    0.7584    0.9255 H         1 <0>         0.4123
     43 H12        -6.0126    3.9728    1.8777 H         1 <0>         0.1501
     44 H13        -7.9532    4.5806    3.2628 H         1 <0>         0.1430
     45 H14        -7.5354   -0.0014    1.4748 H         1 <0>         0.1470
     46 H15       -10.6413    0.6164    2.8618 H         1 <0>         0.4147
     47 H16       -11.2147   -1.6086    3.3114 H         1 <0>         0.4055
     48 H17       -10.9339   -4.8705    4.7865 H         1 <0>         0.1174
     49 H18       -11.9530   -3.4105    4.6947 H         1 <0>         0.1082
     50 H19       -12.2714   -5.2926    2.8200 H         1 <0>         0.1479
     51 H20       -12.1564   -3.5832    2.2761 H         1 <0>         0.1347
     52 H21        -8.3663   -3.0463    2.4987 H         1 <0>         0.1762
     53 H22        -8.2330   -4.4480    3.6117 H         1 <0>         0.1586
     54 H23        -9.9688   -2.5463    6.1234 H         1 <0>         0.0594
     55 H24        -8.8768   -3.9050    5.7630 H         1 <0>         0.0792
     56 H25        -8.4076   -2.2452    5.3232 H         1 <0>         0.1182
     57 H26        -9.7687    2.8258    4.8733 H         1 <0>         0.3932
@<TRIPOS>BOND
     1    1    2 1
     2    1   32 1
     3    1   33 1
     4    1   34 1
     5    2    8 1
     6    2    3 1
     7    2    9 1
     8    3    4 1
     9    3   35 1
    10    3   36 1
    11    4    5 1
    12    4   37 1
    13    4   38 1
    14    5    6 2
    15    5    7 2
    16    5    8 1
    17    8   39 1
    18    8   40 1
    19    9   10 1
    20    9   41 1
    21   10   11 2
    22   10   12 1
    23   12   13 1
    24   12   42 1
    25   13   18 ar
    26   13   14 ar
    27   14   15 ar
    28   14   43 1
    29   15   16 ar
    30   15   44 1
    31   16   17 ar
    32   16   31 1
    33   17   18 ar
    34   17   19 1
    35   18   45 1
    36   19   20 1
    37   19   46 1
    38   20   21 2
    39   20   22 1
    40   22   23 1
    41   22   47 1
    42   23   29 1
    43   23   24 1
    44   23   30 1
    45   24   25 1
    46   24   48 1
    47   24   49 1
    48   25   26 1
    49   25   50 1
    50   25   51 1
    51   26   27 2
    52   26   28 2
    53   26   29 1
    54   29   52 1
    55   29   53 1
    56   30   54 1
    57   30   55 1
    58   30   56 1
    59   31   57 1
