@<TRIPOS>MOLECULE
ZINC16034089
   49    52     0     0     0
SMALL
USER_CHARGES

@<TRIPOS>ATOM
      1 C1         -0.0187    1.5258    0.0104 C.3       1 <0>        -0.1625
      2 C2          0.0021   -0.0041    0.0020 C.3       1 <0>         0.1537
      3 C3          0.7421   -0.5109    1.2415 C.3       1 <0>        -0.1589
      4 C4         -1.4333   -0.5336    0.0129 C.3       1 <0>        -0.1450
      5 N1          0.6878   -0.4765   -1.2033 N.am      1 <0>        -0.5516
      6 C5          0.0911   -1.2466   -2.1202 C.2       1 <0>         0.5361
      7 O1         -1.0558   -1.6361   -2.0686 O.2       1 <0>        -0.4639
      8 C6          1.0695   -1.5558   -3.2310 C.3       1 <0>        -0.1252
      9 H1          0.7106   -1.2369   -4.2095 H         1 <0>         0.1492
     10 C7          1.4249   -3.0575   -3.1872 C.3       1 <0>         0.0954
     11 H2          1.1176   -3.4924   -2.2361 H         1 <0>         0.0845
     12 N2          2.9049   -3.1030   -3.3226 N.3       1 <0>        -0.6092
     13 C8          3.3760   -1.9525   -2.5292 C.3       1 <0>         0.1258
     14 C9          2.3604   -0.8118   -2.7880 C.3       1 <0>        -0.1015
     15 H3          2.7064   -0.0900   -3.5278 H         1 <0>         0.1530
     16 C10         1.9602   -0.1683   -1.4797 C.2       1 <0>         0.5315
     17 O2          2.6808    0.5181   -0.7874 O.2       1 <0>        -0.4624
     18 C11         4.7674   -1.5458   -2.9234 C.ar      1 <0>        -0.1214
     19 C12         5.3326   -1.1239   -4.1061 C.ar      1 <0>        -0.0110
     20 C13         6.6810   -0.8149   -4.1581 C.ar      1 <0>        -0.1172
     21 C14         7.4578   -0.9300   -3.0186 C.ar      1 <0>        -0.0440
     22 C15         6.8948   -1.3497   -1.8315 C.ar      1 <0>        -0.1324
     23 C16         5.5389   -1.6634   -1.7710 C.ar      1 <0>         0.1697
     24 N3          4.7502   -2.1021   -0.7047 N.am      1 <0>        -0.6511
     25 C17         3.4674   -2.2951   -1.0673 C.2       1 <0>         0.5045
     26 O3          2.5621   -2.6723   -0.3537 O.2       1 <0>        -0.4722
     27 Br1         7.4595   -0.2376   -5.7818 Br        1 <0>        -0.0372
     28 C18         0.7586   -3.7964   -4.3494 C.3       1 <0>        -0.1317
     29 C19         1.0168   -5.2753   -4.2185 C.2       1 <0>         0.5217
     30 O4          1.6695   -5.6968   -3.2872 O.2       1 <0>        -0.5456
     31 N4          0.5224   -6.1296   -5.1362 N.am      1 <0>        -0.8541
     32 H4          1.0039    1.9031    0.0027 H         1 <0>         0.0725
     33 H5         -0.5459    1.8868   -0.8726 H         1 <0>         0.0602
     34 H6         -0.5289    1.8773    0.9072 H         1 <0>         0.0774
     35 H7          0.2319   -0.1594    2.1383 H         1 <0>         0.0731
     36 H8          0.7568   -1.6008    1.2356 H         1 <0>         0.0668
     37 H9          1.7647   -0.1336    1.2338 H         1 <0>         0.0682
     38 H10        -1.9605   -0.1726   -0.8702 H         1 <0>         0.0718
     39 H11        -1.4185   -1.6235    0.0069 H         1 <0>         0.0720
     40 H12        -1.9435   -0.1821    0.9097 H         1 <0>         0.0664
     41 H13         3.2748   -3.9686   -2.9592 H         1 <0>         0.3655
     42 H14         4.7238   -1.0345   -4.9937 H         1 <0>         0.1442
     43 H15         8.5101   -0.6903   -3.0591 H         1 <0>         0.1446
     44 H16         7.5073   -1.4362   -0.9462 H         1 <0>         0.1394
     45 H17         5.0874   -2.2509    0.1926 H         1 <0>         0.4187
     46 H18        -0.3155   -3.6119   -4.3293 H         1 <0>         0.1113
     47 H19         1.1712   -3.4376   -5.2924 H         1 <0>         0.1142
     48 H20         0.0004   -5.7925   -5.8811 H         1 <0>         0.4033
     49 H21         0.6886   -7.0815   -5.0520 H         1 <0>         0.4034
@<TRIPOS>BOND
     1    1    2 1
     2    1   32 1
     3    1   33 1
     4    1   34 1
     5    2    3 1
     6    2    4 1
     7    2    5 1
     8    3   35 1
     9    3   36 1
    10    3   37 1
    11    4   38 1
    12    4   39 1
    13    4   40 1
    14    5   16 am
    15    5    6 am
    16    6    7 2
    17    6    8 1
    18    8    9 1
    19    8   14 1
    20    8   10 1
    21   10   11 1
    22   10   12 1
    23   10   28 1
    24   12   13 1
    25   12   41 1
    26   13   25 1
    27   13   14 1
    28   13   18 1
    29   14   15 1
    30   14   16 1
    31   16   17 2
    32   18   23 ar
    33   18   19 ar
    34   19   20 ar
    35   19   42 1
    36   20   21 ar
    37   20   27 1
    38   21   22 ar
    39   21   43 1
    40   22   23 ar
    41   22   44 1
    42   23   24 1
    43   24   25 am
    44   24   45 1
    45   25   26 2
    46   28   29 1
    47   28   46 1
    48   28   47 1
    49   29   30 2
    50   29   31 am
    51   31   48 1
    52   31   49 1
