@<TRIPOS>MOLECULE
ZINC13359244
   41    42     0     0     0
SMALL
USER_CHARGES
3-[[(5-chloro-2-methoxy-benzoyl)amino]sulfamoyl]-4-methoxy-benzoic acid
@<TRIPOS>ATOM
      1 C1         -2.0631   -4.5864    4.0507 C.3       1 <0>         0.0181
      2 O1         -1.4039   -3.5915    3.2648 O.3       1 <0>        -0.2746
      3 C2         -0.1066   -3.3302    3.5636 C.ar      1 <0>         0.1964
      4 C3          0.5244   -4.0195    4.5886 C.ar      1 <0>        -0.2055
      5 C4          1.8426   -3.7483    4.8964 C.ar      1 <0>        -0.0385
      6 C5          2.5471   -2.7921    4.1813 C.ar      1 <0>        -0.0830
      7 C6          1.9368   -2.1017    3.1555 C.ar      1 <0>        -0.0435
      8 C7          0.6031   -2.3667    2.8346 C.ar      1 <0>        -0.1486
      9 C8         -0.0563   -1.6318    1.7383 C.2       1 <0>         0.5652
     10 O2         -1.2171   -1.8651    1.4619 O.2       1 <0>        -0.4997
     11 N1          0.6282   -0.7019    1.0431 N.am      1 <0>        -0.4967
     12 N2          0.0021   -0.0041    0.0020 N.pl3     1 <0>        -0.9013
     13 S1         -0.0204    1.6518    0.0111 S.o2      1 <0>         2.7040
     14 O3         -0.5885    2.0570   -1.2267 O.2       1 <0>        -0.9401
     15 O4         -0.5648    2.0437    1.2638 O.2       1 <0>        -0.9348
     16 C9          1.6555    2.1956   -0.0020 C.ar      1 <0>        -0.7158
     17 C10         2.1436    2.8932   -1.0842 C.ar      1 <0>         0.0454
     18 C11         3.4731    3.3245   -1.0933 C.ar      1 <0>        -0.1580
     19 C12         4.3019    3.0454   -0.0026 C.ar      1 <0>         0.0171
     20 C13         3.8060    2.3474    1.0754 C.ar      1 <0>        -0.2343
     21 C14         2.4815    1.9248    1.0827 C.ar      1 <0>         0.1987
     22 O5          1.9950    1.2419    2.1497 O.3       1 <0>        -0.3213
     23 C15         2.8979    0.9978    3.2301 C.3       1 <0>         0.0139
     24 C16         4.0001    4.0715   -2.2504 C.2       1 <0>         0.4917
     25 O6          3.2784    4.3128   -3.1977 O.co2     1 <0>        -0.6231
     26 Cl1         4.2043   -2.4621    4.5793 Cl        1 <0>        -0.0602
     27 H1         -3.0920   -4.6969    3.7084 H         1 <0>         0.1062
     28 H2         -1.5410   -5.5374    3.9452 H         1 <0>         0.0588
     29 H3         -2.0589   -4.2839    5.0978 H         1 <0>         0.0593
     30 H4         -0.0178   -4.7660    5.1500 H         1 <0>         0.1474
     31 H5          2.3278   -4.2844    5.6986 H         1 <0>         0.1434
     32 H6          2.4887   -1.3570    2.6012 H         1 <0>         0.1411
     33 H7          1.5543   -0.5157    1.2636 H         1 <0>         0.4170
     34 H8         -0.4183   -0.4908   -0.7241 H         1 <0>         0.4272
     35 H9          1.4999    3.1070   -1.9246 H         1 <0>         0.1578
     36 H10         5.3299    3.3765   -0.0058 H         1 <0>         0.1453
     37 H11         4.4456    2.1314    1.9184 H         1 <0>         0.1364
     38 H12         2.3831    0.4448    4.0158 H         1 <0>         0.1054
     39 H13         3.7454    0.4144    2.8706 H         1 <0>         0.0641
     40 H14         3.2536    1.9482    3.6281 H         1 <0>         0.0705
     41 O7          5.2821    4.4864   -2.2573 O.co2     1 <0>        -0.7515
@<TRIPOS>BOND
     1    1    2 1
     2    1   27 1
     3    1   28 1
     4    1   29 1
     5    2    3 1
     6    3    8 ar
     7    3    4 ar
     8    4    5 ar
     9    4   30 1
    10    5    6 ar
    11    5   31 1
    12    6    7 ar
    13    6   26 1
    14    7    8 ar
    15    7   32 1
    16    8    9 1
    17    9   10 2
    18    9   11 am
    19   11   12 1
    20   11   33 1
    21   12   13 1
    22   12   34 1
    23   13   14 2
    24   13   15 2
    25   13   16 1
    26   16   21 ar
    27   16   17 ar
    28   17   18 ar
    29   17   35 1
    30   18   19 ar
    31   18   24 1
    32   19   20 ar
    33   19   36 1
    34   20   21 ar
    35   20   37 1
    36   21   22 1
    37   22   23 1
    38   23   38 1
    39   23   39 1
    40   23   40 1
    41   24   25 2
    42   24   41 1
