@<TRIPOS>MOLECULE
ZINC58158529
   41    43     0     0     0
SMALL
USER_CHARGES

@<TRIPOS>ATOM
      1 C1          0.0048    1.2995    0.1259 C.ar      1 <0>        -0.0922
      2 C2          1.1801    2.0207    0.2083 C.ar      1 <0>        -0.0912
      3 C3          2.3936    1.3999   -0.0557 C.ar      1 <0>         0.1611
      4 C4          2.4217    0.0552   -0.4020 C.ar      1 <0>        -0.0933
      5 C5          1.2432   -0.6602   -0.4827 C.ar      1 <0>        -0.0246
      6 C6          0.0360   -0.0390   -0.2191 C.ar      1 <0>        -0.0699
      7 N1          1.2722   -2.0933   -0.8516 N.pl3     1 <0>         0.0310
      8 O1          2.3271   -2.6370   -1.0822 O.2       1 <0>        -0.1570
      9 O2          0.2409   -2.7203   -0.9224 O.3       1 <0>        -0.1458
     10 N2          3.5861    2.1278    0.0264 N.am      1 <0>        -0.6774
     11 C7          3.5687    3.4679   -0.1160 C.2       1 <0>         0.7143
     12 O3          2.5085    4.0624   -0.1459 O.2       1 <0>        -0.5534
     13 N3          4.7266    4.1490   -0.2254 N.am      1 <0>        -0.6306
     14 C8          6.0045    3.4364   -0.3587 C.3       1 <0>         0.1114
     15 C9          6.9652    3.9402    0.7230 C.3       1 <0>        -0.1498
     16 C10         7.0817    5.4632    0.6270 C.3       1 <0>         0.1251
     17 C11         5.7096    6.0976    0.8660 C.3       1 <0>        -0.1485
     18 C12         4.7342    5.6183   -0.2198 C.3       1 <0>         0.1319
     19 N4          8.0252    5.9452    1.6388 N.pl3     1 <0>        -0.4067
     20 C13         7.9158    5.7840    2.9937 C.2       1 <0>         0.0239
     21 C14         8.9924    6.3763    3.5447 C.2       1 <0>         0.0074
     22 N5          9.7389    6.8852    2.5534 N.pl3     1 <0>        -0.4758
     23 C15         9.1683    6.6265    1.4086 C.cat     1 <0>         0.2900
     24 H1         -0.9391    1.7806    0.3356 H         1 <0>         0.1547
     25 H2          1.1550    3.0663    0.4775 H         1 <0>         0.1801
     26 H3          3.3640   -0.4304   -0.6083 H         1 <0>         0.1546
     27 H4         -0.8842   -0.6006   -0.2829 H         1 <0>         0.1578
     28 H5          4.4251    1.6679    0.1859 H         1 <0>         0.4110
     29 H6          5.8410    2.3662   -0.2326 H         1 <0>         0.0951
     30 H7          6.4296    3.6296   -1.3437 H         1 <0>         0.0907
     31 H8          6.5823    3.6659    1.7060 H         1 <0>         0.0887
     32 H9          7.9470    3.4902    0.5759 H         1 <0>         0.0986
     33 H10         7.4411    5.7381   -0.3646 H         1 <0>         0.1332
     34 H11         5.3386    5.8029    1.8476 H         1 <0>         0.0878
     35 H12         5.7978    7.1830    0.8207 H         1 <0>         0.0980
     36 H13         5.0578    5.9857   -1.1936 H         1 <0>         0.0846
     37 H14         3.7323    5.9880   -0.0019 H         1 <0>         0.1158
     38 H15         7.1190    5.2792    3.5197 H         1 <0>         0.2190
     39 H16         9.2157    6.4317    4.5999 H         1 <0>         0.2241
     40 H17         9.5462    6.9121    0.4381 H         1 <0>         0.2602
     41 H18        10.5731    7.3664    2.6689 H         1 <0>         0.4660
@<TRIPOS>BOND
     1    1    6 ar
     2    1    2 ar
     3    1   24 1
     4    2    3 ar
     5    2   25 1
     6    3    4 ar
     7    3   10 1
     8    4    5 ar
     9    4   26 1
    10    5    6 ar
    11    5    7 1
    12    6   27 1
    13    7    8 2
    14    7    9 1
    15   10   11 am
    16   10   28 1
    17   11   12 2
    18   11   13 am
    19   13   18 1
    20   13   14 1
    21   14   15 1
    22   14   29 1
    23   14   30 1
    24   15   16 1
    25   15   31 1
    26   15   32 1
    27   16   17 1
    28   16   19 1
    29   16   33 1
    30   17   18 1
    31   17   34 1
    32   17   35 1
    33   18   36 1
    34   18   37 1
    35   19   23 1
    36   19   20 1
    37   20   21 2
    38   20   38 1
    39   21   22 1
    40   21   39 1
    41   22   23 2
    42   22   41 1
    43   23   40 1
