@<TRIPOS>MOLECULE
ZINC38909232
   61    64     0     0     0
SMALL
USER_CHARGES

@<TRIPOS>ATOM
      1 C1         -0.0238    1.5235    0.0457 C.3       1 <0>        -0.1721
      2 C2          0.0001   -0.0063    0.0295 C.3       1 <0>         0.1244
      3 H1          0.5221   -0.3663   -0.8570 H         1 <0>         0.0990
      4 C3         -1.4327   -0.5625    0.0675 C.3       1 <0>        -0.0829
      5 C4         -1.4927   -1.3731    1.3426 C.ar      1 <0>        -0.1592
      6 C5         -2.5226   -2.1033    1.9044 C.ar      1 <0>         0.0261
      7 C6         -2.3293   -2.7703    3.0995 C.ar      1 <0>        -0.7006
      8 C7         -1.1016   -2.7052    3.7328 C.ar      1 <0>         0.0051
      9 C8         -0.0714   -1.9780    3.1762 C.ar      1 <0>        -0.1526
     10 C9         -0.2589   -1.3016    1.9691 C.ar      1 <0>         0.2039
     11 N1          0.6451   -0.5174    1.2420 N.am      1 <0>        -0.5559
     12 C10         1.9197   -0.2688    1.6025 C.2       1 <0>         0.5238
     13 O1          2.3342   -0.6592    2.6734 O.2       1 <0>        -0.5131
     14 C11         2.8300    0.4944    0.6751 C.3       1 <0>        -0.1716
     15 S1         -3.6435   -3.7013    3.8141 S.o2      1 <0>         2.6997
     16 O2         -3.3734   -3.7825    5.2068 O.2       1 <0>        -0.9541
     17 O3         -4.8522   -3.1561    3.3030 O.2       1 <0>        -0.9563
     18 N2         -3.5311   -5.2428    3.2195 N.pl3     1 <0>        -1.1155
     19 C12        -2.3688   -6.0718    3.5482 C.3       1 <0>         0.1170
     20 C13        -2.6708   -7.5322    3.2064 C.3       1 <0>         0.0630
     21 O4         -2.8426   -7.6651    1.7940 O.3       1 <0>        -0.2995
     22 C14        -3.1181   -8.9053    1.3216 C.ar      1 <0>         0.3913
     23 C15        -3.2931   -9.1175   -0.0401 C.ar      1 <0>        -0.3193
     24 C16        -3.5740  -10.4098   -0.4758 C.ar      1 <0>         0.4651
     25 N3         -3.6641  -11.3887    0.4223 N.ar      1 <0>        -0.5944
     26 C17        -3.4913  -11.1457    1.7054 C.ar      1 <0>         0.3776
     27 N4         -3.2192   -9.9372    2.1547 N.ar      1 <0>        -0.6140
     28 N5         -3.7576  -10.6733   -1.8242 N.pl3     1 <0>        -0.5926
     29 C18        -4.2718  -11.9757   -2.2692 C.3       1 <0>         0.1218
     30 C19        -5.4904  -11.7436   -3.1681 C.3       1 <0>        -0.1372
     31 C20        -5.1059  -10.7970   -4.3075 C.3       1 <0>        -0.1217
     32 C21        -4.6694   -9.4494   -3.7281 C.3       1 <0>        -0.1370
     33 C22        -3.4473   -9.6533   -2.8352 C.3       1 <0>         0.1173
     34 H2          0.9980    1.9029    0.0428 H         1 <0>         0.0690
     35 H3         -0.5492    1.8880   -0.8371 H         1 <0>         0.0826
     36 H4         -0.5373    1.8694    0.9427 H         1 <0>         0.0667
     37 H5         -2.1560    0.2522    0.1005 H         1 <0>         0.0993
     38 H6         -1.6160   -1.2001   -0.7973 H         1 <0>         0.0975
     39 H7         -3.4808   -2.1527    1.4087 H         1 <0>         0.1440
     40 H8         -0.9496   -3.2257    4.6669 H         1 <0>         0.1466
     41 H9          0.8849   -1.9310    3.6760 H         1 <0>         0.1485
     42 H10         2.8213    1.5504    0.9452 H         1 <0>         0.1029
     43 H11         3.8447    0.1057    0.7608 H         1 <0>         0.1018
     44 H12         2.4822    0.3790   -0.3515 H         1 <0>         0.0854
     45 H13        -4.2349   -5.5969    2.6536 H         1 <0>         0.4228
     46 H14        -1.5073   -5.7344    2.9720 H         1 <0>         0.0785
     47 H15        -2.1503   -5.9855    4.6126 H         1 <0>         0.1060
     48 H16        -1.8419   -8.1605    3.5323 H         1 <0>         0.0880
     49 H17        -3.5838   -7.8429    3.7143 H         1 <0>         0.0827
     50 H18        -3.2137   -8.3011   -0.7427 H         1 <0>         0.1464
     51 H19        -3.5712  -11.9612    2.4090 H         1 <0>         0.1998
     52 H20        -3.4990  -12.5014   -2.8299 H         1 <0>         0.0654
     53 H21        -4.5646  -12.5684   -1.4026 H         1 <0>         0.0979
     54 H22        -5.8234  -12.6952   -3.5824 H         1 <0>         0.0774
     55 H23        -6.2953  -11.2997   -2.5823 H         1 <0>         0.0661
     56 H24        -4.2843  -11.2302   -4.8779 H         1 <0>         0.0654
     57 H25        -5.9645  -10.6496   -4.9626 H         1 <0>         0.0673
     58 H26        -4.4180   -8.7681   -4.5410 H         1 <0>         0.0787
     59 H27        -5.4821   -9.0271   -3.1371 H         1 <0>         0.0683
     60 H28        -3.1962   -8.7143   -2.3419 H         1 <0>         0.0873
     61 H29        -2.6057   -9.9856   -3.4431 H         1 <0>         0.0717
@<TRIPOS>BOND
     1    1    2 1
     2    1   34 1
     3    1   35 1
     4    1   36 1
     5    2    3 1
     6    2   11 1
     7    2    4 1
     8    4    5 1
     9    4   37 1
    10    4   38 1
    11    5   10 ar
    12    5    6 ar
    13    6    7 ar
    14    6   39 1
    15    7    8 ar
    16    7   15 1
    17    8    9 ar
    18    8   40 1
    19    9   10 ar
    20    9   41 1
    21   10   11 1
    22   11   12 am
    23   12   13 2
    24   12   14 1
    25   14   42 1
    26   14   43 1
    27   14   44 1
    28   15   16 2
    29   15   17 2
    30   15   18 1
    31   18   19 1
    32   18   45 1
    33   19   20 1
    34   19   46 1
    35   19   47 1
    36   20   21 1
    37   20   48 1
    38   20   49 1
    39   21   22 1
    40   22   27 ar
    41   22   23 ar
    42   23   24 ar
    43   23   50 1
    44   24   25 ar
    45   24   28 1
    46   25   26 ar
    47   26   27 ar
    48   26   51 1
    49   28   33 1
    50   28   29 1
    51   29   30 1
    52   29   52 1
    53   29   53 1
    54   30   31 1
    55   30   54 1
    56   30   55 1
    57   31   32 1
    58   31   56 1
    59   31   57 1
    60   32   33 1
    61   32   58 1
    62   32   59 1
    63   33   60 1
    64   33   61 1
