@<TRIPOS>MOLECULE
ZINC25515477
   51    53     0     0     0
SMALL
USER_CHARGES
4-acetyl-N-[3,5-dimethyl-1-(p-tolyl)pyrazol-4-yl]-3,5-dimethyl-1H-pyrrole-2-carboxamide
@<TRIPOS>ATOM
      1 C1        -10.0106    0.6246   -1.5481 C.3       1 <0>        -0.1197
      2 C2         -8.5343    0.5944   -1.2470 C.ar      1 <0>        -0.0837
      3 C3         -7.6418    1.2059   -2.1082 C.ar      1 <0>        -0.1010
      4 C4         -6.2882    1.1799   -1.8350 C.ar      1 <0>        -0.1243
      5 C5         -5.8239    0.5388   -0.6943 C.ar      1 <0>         0.1499
      6 C6         -6.7220   -0.0793    0.1655 C.ar      1 <0>        -0.1030
      7 C7         -8.0749   -0.0453   -0.1104 C.ar      1 <0>        -0.1019
      8 N1         -4.4509    0.5107   -0.4143 N.pl3     1 <0>        -0.3219
      9 C8         -3.5816    1.5475   -0.5620 C.2       1 <0>         0.0622
     10 C9         -2.3531    1.1077   -0.1867 C.2       1 <0>         0.0110
     11 C10        -2.4787   -0.2327    0.2093 C.2       1 <0>         0.1037
     12 N2         -3.7309   -0.5876    0.0730 N.2       1 <0>        -0.2785
     13 C11        -1.3617   -1.1137    0.7064 C.3       1 <0>        -0.1080
     14 N3         -1.1664    1.8632   -0.1886 N.am      1 <0>        -0.6531
     15 C12        -0.2018    1.6052    0.7166 C.2       1 <0>         0.5823
     16 O1         -0.3942    0.7835    1.5934 O.2       1 <0>        -0.4966
     17 C13         1.0834    2.3113    0.6413 C.2       1 <0>        -0.0665
     18 C14         2.1358    2.1436    1.4903 C.2       1 <0>        -0.0295
     19 C15         3.1635    3.0131    1.0517 C.2       1 <0>        -0.2610
     20 C16         2.6768    3.6876   -0.0571 C.2       1 <0>         0.1155
     21 N4          1.4281    3.2606   -0.2966 N.pl3     1 <0>        -0.5376
     22 H1          0.7094    3.5479   -1.0782 H         1 <0>         0.4407
     23 C17         3.4232    4.7242   -0.8568 C.3       1 <0>        -0.1009
     24 C18         4.4882    3.1743    1.6590 C.2       1 <0>         0.4357
     25 O2          5.4334    2.5477    1.2279 O.2       1 <0>        -0.4506
     26 C19         4.6757    4.1184    2.8186 C.3       1 <0>        -0.2003
     27 C20         2.1957    1.2079    2.6701 C.3       1 <0>        -0.0900
     28 C21        -3.9202    2.9306   -1.0551 C.3       1 <0>        -0.0923
     29 H2        -10.1824    1.1736   -2.4857 H         1 <0>         0.0682
     30 H3        -10.5422    1.1268   -0.7264 H         1 <0>         0.0736
     31 H4        -10.3847   -0.4046   -1.6520 H         1 <0>         0.0737
     32 H5         -8.0036    1.7047   -2.9952 H         1 <0>         0.1330
     33 H6         -5.5916    1.6574   -2.5082 H         1 <0>         0.1305
     34 H7         -6.3633   -0.5828    1.0511 H         1 <0>         0.1330
     35 H8         -8.7743   -0.5223    0.5601 H         1 <0>         0.1329
     36 H9         -1.7591   -2.1121    0.9414 H         1 <0>         0.0617
     37 H10        -0.9216   -0.6716    1.6124 H         1 <0>         0.1502
     38 H11        -0.5891   -1.2004   -0.0718 H         1 <0>         0.0661
     39 H12        -1.0258    2.6646   -0.9289 H         1 <0>         0.4168
     40 H13         2.7849    5.0839   -1.6773 H         1 <0>         0.0739
     41 H14         4.3382    4.2774   -1.2729 H         1 <0>         0.0879
     42 H15         3.6913    5.5679   -0.2039 H         1 <0>         0.0867
     43 H16         5.7288    4.1046    3.1360 H         1 <0>         0.0842
     44 H17         4.0362    3.8022    3.6559 H         1 <0>         0.0953
     45 H18         4.3989    5.1374    2.5102 H         1 <0>         0.0929
     46 H19         3.1764    1.2981    3.1602 H         1 <0>         0.0590
     47 H20         2.0519    0.1733    2.3252 H         1 <0>         0.0778
     48 H21         1.4026    1.4694    3.3861 H         1 <0>         0.0785
     49 H22        -3.0105    3.5489   -1.0659 H         1 <0>         0.0807
     50 H23        -4.6653    3.3861   -0.3863 H         1 <0>         0.0826
     51 H24        -4.3320    2.8663   -2.0731 H         1 <0>         0.0802
@<TRIPOS>BOND
     1    1    2 1
     2    1   29 1
     3    1   30 1
     4    1   31 1
     5    2    7 ar
     6    2    3 ar
     7    3    4 ar
     8    3   32 1
     9    4    5 ar
    10    4   33 1
    11    5    6 ar
    12    5    8 1
    13    6    7 ar
    14    6   34 1
    15    7   35 1
    16    8   12 1
    17    8    9 1
    18    9   10 2
    19    9   28 1
    20   10   11 1
    21   10   14 1
    22   11   12 2
    23   11   13 1
    24   13   36 1
    25   13   37 1
    26   13   38 1
    27   14   15 am
    28   14   39 1
    29   15   16 2
    30   15   17 1
    31   17   21 1
    32   17   18 2
    33   18   19 1
    34   18   27 1
    35   19   20 2
    36   19   24 1
    37   20   21 1
    38   20   23 1
    39   21   22 1
    40   23   40 1
    41   23   41 1
    42   23   42 1
    43   24   25 2
    44   24   26 1
    45   26   43 1
    46   26   44 1
    47   26   45 1
    48   27   46 1
    49   27   47 1
    50   27   48 1
    51   28   49 1
    52   28   50 1
    53   28   51 1
