@<TRIPOS>MOLECULE
ZINC59418327
   57    60     0     0     0
SMALL
USER_CHARGES

@<TRIPOS>ATOM
      1 C1         -0.0178    1.4608    0.0101 C.3       1 <0>         0.1162
      2 N1          0.0021   -0.0041    0.0020 N.pl3     1 <0>        -0.6862
      3 C2          1.2806   -0.7192   -0.0140 C.3       1 <0>         0.1159
      4 C3         -1.1970   -0.7183    0.0096 C.ar      1 <0>         0.2131
      5 C4         -1.8015   -1.0717   -1.1918 C.ar      1 <0>        -0.1239
      6 C5         -2.9851   -1.7767   -1.1884 C.ar      1 <0>        -0.0695
      7 C6         -3.5788   -2.1370    0.0245 C.ar      1 <0>        -0.0496
      8 C7         -2.9690   -1.7804    1.2302 C.ar      1 <0>        -0.0472
      9 C8         -1.7818   -1.0799    1.2192 C.ar      1 <0>        -0.1050
     10 Br1        -0.9511   -0.6032    2.8497 Br        1 <0>        -0.0392
     11 C9         -4.8456   -2.8910    0.0319 C.2       1 <0>         0.0991
     12 N2         -5.3956   -3.2248    1.1592 N.2       1 <0>        -0.2008
     13 N3         -6.5994   -3.9413    1.1662 N.pl3     1 <0>        -0.5360
     14 C10        -7.1845   -4.2964    2.3653 C.ar      1 <0>         0.6766
     15 N4         -8.3245   -4.9813    2.3720 N.ar      1 <0>        -0.6750
     16 C11        -8.8876   -5.3230    3.5264 C.ar      1 <0>         0.6745
     17 N5         -8.3112   -4.9801    4.6745 N.ar      1 <0>        -0.6713
     18 C12        -7.1717   -4.2955    4.6680 C.ar      1 <0>         0.6536
     19 N6         -6.6054   -3.9584    3.5135 N.ar      1 <0>        -0.6438
     20 N7         -6.5737   -3.9397    5.8599 N.pl3     1 <0>        -0.5753
     21 C13        -7.1753   -4.3122    7.1501 C.3       1 <0>         0.0932
     22 C14        -6.0963   -4.9768    8.0128 C.3       1 <0>         0.0475
     23 O1         -4.9488   -4.1260    8.0694 O.3       1 <0>        -0.3796
     24 C15        -4.3270   -3.8970    6.8026 C.3       1 <0>         0.0477
     25 C16        -5.3124   -3.1820    5.8779 C.3       1 <0>         0.0922
     26 N8        -10.0709   -6.0334    3.5334 N.pl3     1 <0>        -0.5819
     27 C17       -10.8019   -6.4686    4.7325 C.3       1 <0>         0.1253
     28 C18       -12.0453   -7.2472    4.2536 C.3       1 <0>        -0.1341
     29 C19       -11.6459   -7.6935    2.8223 C.3       1 <0>        -0.1352
     30 C20       -10.8144   -6.4760    2.3398 C.3       1 <0>         0.1219
     31 H1          1.0048    1.8381    0.0023 H         1 <0>         0.0691
     32 H2         -0.5450    1.8219   -0.8730 H         1 <0>         0.0416
     33 H3         -0.5280    1.8123    0.9069 H         1 <0>         0.0441
     34 H4          1.6074   -0.9021    1.0096 H         1 <0>         0.0396
     35 H5          1.1583   -1.6705   -0.5318 H         1 <0>         0.0546
     36 H6          2.0272   -0.1171   -0.5318 H         1 <0>         0.0610
     37 H7         -1.3427   -0.7928   -2.1288 H         1 <0>         0.1361
     38 H8         -3.4539   -2.0504   -2.1220 H         1 <0>         0.1363
     39 H9         -3.4249   -2.0571    2.1694 H         1 <0>         0.1459
     40 H10        -5.3160   -3.1656   -0.9007 H         1 <0>         0.1248
     41 H11        -7.0219   -4.1880    0.3286 H         1 <0>         0.4046
     42 H12        -7.5487   -3.4198    7.6523 H         1 <0>         0.0758
     43 H13        -7.9951   -5.0112    6.9847 H         1 <0>         0.1077
     44 H14        -6.4820   -5.1354    9.0199 H         1 <0>         0.1085
     45 H15        -5.8180   -5.9348    7.5736 H         1 <0>         0.0548
     46 H16        -3.4397   -3.2788    6.9391 H         1 <0>         0.1095
     47 H17        -4.0422   -4.8511    6.3591 H         1 <0>         0.0549
     48 H18        -4.8992   -3.1329    4.8705 H         1 <0>         0.1128
     49 H19        -5.4950   -2.1739    6.2499 H         1 <0>         0.0753
     50 H20       -10.1686   -7.1173    5.3377 H         1 <0>         0.0696
     51 H21       -11.1099   -5.6000    5.3145 H         1 <0>         0.0694
     52 H22       -12.2273   -8.1127    4.8907 H         1 <0>         0.0859
     53 H23       -12.9199   -6.5973    4.2250 H         1 <0>         0.0787
     54 H24       -11.0393   -8.5987    2.8503 H         1 <0>         0.0775
     55 H25       -12.5273   -7.8350    2.1969 H         1 <0>         0.0879
     56 H26       -11.4713   -5.6814    1.9858 H         1 <0>         0.0686
     57 H27       -10.1234   -6.7771    1.5525 H         1 <0>         0.0820
@<TRIPOS>BOND
     1    1    2 1
     2    1   31 1
     3    1   32 1
     4    1   33 1
     5    2    3 1
     6    2    4 1
     7    3   34 1
     8    3   35 1
     9    3   36 1
    10    4    9 ar
    11    4    5 ar
    12    5    6 ar
    13    5   37 1
    14    6    7 ar
    15    6   38 1
    16    7    8 ar
    17    7   11 1
    18    8    9 ar
    19    8   39 1
    20    9   10 1
    21   11   12 2
    22   11   40 1
    23   12   13 1
    24   13   14 1
    25   13   41 1
    26   14   19 ar
    27   14   15 ar
    28   15   16 ar
    29   16   17 ar
    30   16   26 1
    31   17   18 ar
    32   18   19 ar
    33   18   20 1
    34   20   25 1
    35   20   21 1
    36   21   22 1
    37   21   42 1
    38   21   43 1
    39   22   23 1
    40   22   44 1
    41   22   45 1
    42   23   24 1
    43   24   25 1
    44   24   46 1
    45   24   47 1
    46   25   48 1
    47   25   49 1
    48   26   30 1
    49   26   27 1
    50   27   28 1
    51   27   50 1
    52   27   51 1
    53   28   29 1
    54   28   52 1
    55   28   53 1
    56   29   30 1
    57   29   54 1
    58   29   55 1
    59   30   56 1
    60   30   57 1
