@<TRIPOS>MOLECULE
ZINC03487531
   51    52     0     0     0
SMALL
USER_CHARGES
(1-methyl-3-phenyl-propyl)carbamoylmethyl 2-(4-chloro-3-methyl-phenoxy)acetate
@<TRIPOS>ATOM
      1 C1          6.2494   11.8082    0.0058 C.3       1 <0>        -0.1231
      2 C2          6.2682   10.3013   -0.0020 C.ar      1 <0>        -0.0331
      3 C3          5.0801    9.5961    0.0051 C.ar      1 <0>        -0.1358
      4 C4          5.0979    8.2092   -0.0025 C.ar      1 <0>         0.1381
      5 C5          6.3092    7.5328   -0.0119 C.ar      1 <0>        -0.2041
      6 C6          7.4948    8.2414   -0.0243 C.ar      1 <0>        -0.0628
      7 C7          7.4750    9.6251   -0.0167 C.ar      1 <0>        -0.0730
      8 Cl1         8.9664   10.5135   -0.0261 Cl        1 <0>        -0.0641
      9 O1          3.9301    7.5136    0.0049 O.3       1 <0>        -0.2914
     10 C8          4.0243    6.0878   -0.0037 C.3       1 <0>         0.0695
     11 C9          2.6397    5.4929    0.0064 C.2       1 <0>         0.4674
     12 O2          1.6716    6.2158    0.0195 O.2       1 <0>        -0.4796
     13 O3          2.4819    4.1599    0.0007 O.3       1 <0>        -0.3275
     14 C10         1.1197    3.6573    0.0110 C.3       1 <0>         0.0493
     15 C11         1.1401    2.1505    0.0027 C.2       1 <0>         0.5172
     16 O4          2.1985    1.5584   -0.0106 O.2       1 <0>        -0.5128
     17 N1         -0.0178    1.4608    0.0101 N.am      1 <0>        -0.7209
     18 C12         0.0021   -0.0041    0.0020 C.3       1 <0>         0.1436
     19 H1          0.8431   -0.3527   -0.5974 H         1 <0>         0.0929
     20 C13         0.1484   -0.5200    1.4349 C.3       1 <0>        -0.1659
     21 C14        -1.3040   -0.5285   -0.5980 C.3       1 <0>        -0.1215
     22 C15        -1.3910   -0.1168   -2.0690 C.3       1 <0>        -0.0815
     23 C16        -2.6774   -0.6334   -2.6600 C.ar      1 <0>        -0.0842
     24 C17        -2.7136   -1.8818   -3.2525 C.ar      1 <0>        -0.1177
     25 C18        -3.8949   -2.3578   -3.7899 C.ar      1 <0>        -0.1172
     26 C19        -5.0374   -1.5810   -3.7445 C.ar      1 <0>        -0.1242
     27 C20        -4.9998   -0.3302   -3.1571 C.ar      1 <0>        -0.1177
     28 C21        -3.8199    0.1435   -2.6146 C.ar      1 <0>        -0.1185
     29 H2          6.2541   12.1663    1.0353 H         1 <0>         0.0811
     30 H3          7.1301   12.1852   -0.5141 H         1 <0>         0.0780
     31 H4          5.3504   12.1630   -0.4982 H         1 <0>         0.0754
     32 H5          4.1382   10.1243    0.0169 H         1 <0>         0.1433
     33 H6          6.3251    6.4529   -0.0133 H         1 <0>         0.1399
     34 H7          8.4378    7.7152   -0.0354 H         1 <0>         0.1395
     35 H8          4.5694    5.7543    0.8794 H         1 <0>         0.1129
     36 H9          4.5524    5.7639   -0.9005 H         1 <0>         0.1130
     37 H10         0.5925    4.0184   -0.8721 H         1 <0>         0.1059
     38 H11         0.6095    4.0088    0.9078 H         1 <0>         0.1060
     39 H12        -0.8643    1.9343    0.0167 H         1 <0>         0.4025
     40 H13         0.1632   -1.6099    1.4289 H         1 <0>         0.0693
     41 H14         1.0789   -0.1464    1.8624 H         1 <0>         0.0627
     42 H15        -0.6926   -0.1713    2.0343 H         1 <0>         0.0588
     43 H16        -1.3275   -1.6157   -0.5230 H         1 <0>         0.0845
     44 H17        -2.1490   -0.1083   -0.0525 H         1 <0>         0.0726
     45 H18        -1.3675    0.9703   -2.1440 H         1 <0>         0.0722
     46 H19        -0.5460   -0.5370   -2.6145 H         1 <0>         0.0748
     47 H20        -1.8199   -2.4869   -3.2919 H         1 <0>         0.1214
     48 H21        -3.9243   -3.3352   -4.2485 H         1 <0>         0.1220
     49 H22        -5.9594   -1.9513   -4.1677 H         1 <0>         0.1213
     50 H23        -5.8925    0.2768   -3.1216 H         1 <0>         0.1217
     51 H24        -3.7906    1.1207   -2.1556 H         1 <0>         0.1200
@<TRIPOS>BOND
     1    1    2 1
     2    1   29 1
     3    1   30 1
     4    1   31 1
     5    2    7 ar
     6    2    3 ar
     7    3    4 ar
     8    3   32 1
     9    4    5 ar
    10    4    9 1
    11    5    6 ar
    12    5   33 1
    13    6    7 ar
    14    6   34 1
    15    7    8 1
    16    9   10 1
    17   10   11 1
    18   10   35 1
    19   10   36 1
    20   11   12 2
    21   11   13 1
    22   13   14 1
    23   14   15 1
    24   14   37 1
    25   14   38 1
    26   15   16 2
    27   15   17 am
    28   17   18 1
    29   17   39 1
    30   18   19 1
    31   18   20 1
    32   18   21 1
    33   20   40 1
    34   20   41 1
    35   20   42 1
    36   21   22 1
    37   21   43 1
    38   21   44 1
    39   22   23 1
    40   22   45 1
    41   22   46 1
    42   23   28 ar
    43   23   24 ar
    44   24   25 ar
    45   24   47 1
    46   25   26 ar
    47   25   48 1
    48   26   27 ar
    49   26   49 1
    50   27   28 ar
    51   27   50 1
    52   28   51 1
