@<TRIPOS>MOLECULE
ZINC66966681
   41    41     0     0     0
SMALL
USER_CHARGES

@<TRIPOS>ATOM
      1 C1         -0.0233    1.5222   -0.1784 C.3       1 <0>        -0.1700
      2 C2         -0.0032    0.0116    0.0639 C.3       1 <0>         0.1362
      3 H1          0.4550   -0.1952    1.0310 H         1 <0>         0.1125
      4 C3          0.7941   -0.6611   -1.0238 C.2       1 <0>         0.5154
      5 O1          0.2686   -1.4885   -1.7372 O.2       1 <0>        -0.4540
      6 N1          2.0914   -0.3428   -1.2033 N.am      1 <0>        -0.6882
      7 C4          2.8044   -0.9444   -2.1760 C.2       1 <0>         0.6911
      8 O2          2.2776   -1.7739   -2.8913 O.2       1 <0>        -0.5261
      9 N2          4.1017   -0.6262   -2.3556 N.am      1 <0>        -0.7406
     10 C5          4.8768   -1.2801   -3.4129 C.3       1 <0>         0.1017
     11 N3         -1.3748   -0.5030    0.0533 N.pl3     1 <0>        -0.7213
     12 C6         -2.1468   -0.4615    1.2199 C.ar      1 <0>         0.2244
     13 C7         -1.6167    0.0718    2.3857 C.ar      1 <0>        -0.2087
     14 C8         -2.3825    0.1120    3.5379 C.ar      1 <0>         0.1117
     15 C9         -3.6768   -0.3796    3.5291 C.ar      1 <0>        -0.1696
     16 C10        -4.2098   -0.9122    2.3695 C.ar      1 <0>        -0.1373
     17 C11        -3.4512   -0.9503    1.2116 C.ar      1 <0>         0.0587
     18 O3         -3.9770   -1.4695    0.0692 O.3       1 <0>        -0.3101
     19 C12        -5.2724   -2.0654    0.1637 C.3       1 <0>         0.0807
     20 C13        -6.3436   -0.9818    0.0256 C.3       1 <0>        -0.1816
     21 C14        -5.4424   -3.0960   -0.9543 C.3       1 <0>        -0.1505
     22 F1         -1.8660    0.6314    4.6731 F         1 <0>        -0.1393
     23 H2          0.9973    1.9050   -0.1706 H         1 <0>         0.0718
     24 H3         -0.4814    1.7289   -1.1456 H         1 <0>         0.0703
     25 H4         -0.5999    2.0087    0.6082 H         1 <0>         0.0805
     26 H5          2.5119    0.3192   -0.6325 H         1 <0>         0.4112
     27 H6          4.5222    0.0358   -1.7848 H         1 <0>         0.4010
     28 H7          4.8911   -2.3562   -3.2403 H         1 <0>         0.0629
     29 H8          4.4186   -1.0733   -4.3801 H         1 <0>         0.0629
     30 H9          5.8973   -0.8972   -3.4050 H         1 <0>         0.0819
     31 H10        -1.7479   -0.8724   -0.7623 H         1 <0>         0.4193
     32 H11        -0.6070    0.4550    2.3943 H         1 <0>         0.1402
     33 H12        -4.2714   -0.3473    4.4301 H         1 <0>         0.1352
     34 H13        -5.2197   -1.2948    2.3659 H         1 <0>         0.1403
     35 H14        -5.3762   -2.5578    1.1306 H         1 <0>         0.0733
     36 H15        -7.3317   -1.4363    0.0977 H         1 <0>         0.0725
     37 H16        -6.2225   -0.2476    0.8221 H         1 <0>         0.0630
     38 H17        -6.2399   -0.4894   -0.9413 H         1 <0>         0.0678
     39 H18        -4.6793   -3.8681   -0.8559 H         1 <0>         0.0657
     40 H19        -6.4305   -3.5506   -0.8822 H         1 <0>         0.0775
     41 H20        -5.3387   -2.6037   -1.9212 H         1 <0>         0.0675
@<TRIPOS>BOND
     1    1    2 1
     2    1   23 1
     3    1   24 1
     4    1   25 1
     5    2    3 1
     6    2    4 1
     7    2   11 1
     8    4    5 2
     9    4    6 am
    10    6    7 am
    11    6   26 1
    12    7    8 2
    13    7    9 am
    14    9   10 1
    15    9   27 1
    16   10   28 1
    17   10   29 1
    18   10   30 1
    19   11   12 1
    20   11   31 1
    21   12   17 ar
    22   12   13 ar
    23   13   14 ar
    24   13   32 1
    25   14   15 ar
    26   14   22 1
    27   15   16 ar
    28   15   33 1
    29   16   17 ar
    30   16   34 1
    31   17   18 1
    32   18   19 1
    33   19   20 1
    34   19   21 1
    35   19   35 1
    36   20   36 1
    37   20   37 1
    38   20   38 1
    39   21   39 1
    40   21   40 1
    41   21   41 1
