@<TRIPOS>MOLECULE
ZINC63412118
   33    35     0     0     0
SMALL
USER_CHARGES

@<TRIPOS>ATOM
      1 C1          0.7459    1.3838    0.0836 C.3       1 <0>         0.0941
      2 N1          0.3871   -0.0356    0.0303 N.pl3     1 <0>        -0.3611
      3 C2          0.5297   -0.8416   -1.0354 C.2       1 <0>         0.0938
      4 C3          0.0742   -2.0955   -0.6683 C.2       1 <0>        -0.2423
      5 C4         -0.3521   -2.0056    0.6776 C.2       1 <0>         0.0561
      6 N2         -0.1560   -0.7812    1.0823 N.2       1 <0>        -0.2964
      7 C5          0.0394   -3.2942   -1.5166 C.2       1 <0>         0.0591
      8 C6          0.1607   -4.5205   -0.9595 C.2       1 <0>        -0.2206
      9 C7          0.1630   -4.6589    0.5335 C.3       1 <0>        -0.0948
     10 C8         -1.2519   -4.8954    1.0701 C.3       1 <0>        -0.1032
     11 S1         -2.0884   -6.0983   -0.0090 S.3       1 <0>        -0.1390
     12 C9         -0.8503   -7.3116   -0.3257 C.ar      1 <0>        -0.0830
     13 C10        -0.9146   -8.5635    0.2699 C.ar      1 <0>        -0.0749
     14 C11         0.0609   -9.5018   -0.0031 C.ar      1 <0>        -0.1072
     15 C12         1.1020   -9.2043   -0.8693 C.ar      1 <0>        -0.1012
     16 C13         1.1827   -7.9639   -1.4661 C.ar      1 <0>        -0.0823
     17 C14         0.2088   -7.0035   -1.1927 C.ar      1 <0>        -0.1123
     18 C15         0.2779   -5.6560   -1.7910 C.2       1 <0>         0.4465
     19 O1          0.4390   -5.5249   -2.9915 O.2       1 <0>        -0.4527
     20 H1          1.7816    1.4849    0.4082 H         1 <0>         0.0810
     21 H2          0.6307    1.8251   -0.9063 H         1 <0>         0.0928
     22 H3          0.0924    1.8975    0.7887 H         1 <0>         0.0947
     23 H4          0.9263   -0.5622   -2.0003 H         1 <0>         0.1860
     24 H5         -0.7637   -2.8108    1.2680 H         1 <0>         0.2002
     25 H6         -0.0831   -3.1962   -2.5851 H         1 <0>         0.1379
     26 H7          0.7965   -5.5006    0.8133 H         1 <0>         0.0753
     27 H8          0.5652   -3.7476    0.9761 H         1 <0>         0.1008
     28 H9         -1.1973   -5.2901    2.0847 H         1 <0>         0.0983
     29 H10        -1.8053   -3.9564    1.0693 H         1 <0>         0.1142
     30 H11        -1.7237   -8.8026    0.9441 H         1 <0>         0.1391
     31 H12         0.0129  -10.4752    0.4622 H         1 <0>         0.1333
     32 H13         1.8553   -9.9495   -1.0779 H         1 <0>         0.1335
     33 H14         1.9951   -7.7372   -2.1406 H         1 <0>         0.1341
@<TRIPOS>BOND
     1    1    2 1
     2    1   20 1
     3    1   21 1
     4    1   22 1
     5    2    6 1
     6    2    3 1
     7    3    4 2
     8    3   23 1
     9    4    5 1
    10    4    7 1
    11    5    6 2
    12    5   24 1
    13    7    8 2
    14    7   25 1
    15    8   18 1
    16    8    9 1
    17    9   10 1
    18    9   26 1
    19    9   27 1
    20   10   11 1
    21   10   28 1
    22   10   29 1
    23   11   12 1
    24   12   17 ar
    25   12   13 ar
    26   13   14 ar
    27   13   30 1
    28   14   15 ar
    29   14   31 1
    30   15   16 ar
    31   15   32 1
    32   16   17 ar
    33   16   33 1
    34   17   18 1
    35   18   19 2
