@<TRIPOS>MOLECULE
ZINC12817168
   46    48     0     0     0
SMALL
USER_CHARGES
dimethyl 5-[[2-(6-bromo-4-oxo-quinazolin-3-yl)acetyl]amino]-3-methyl-thiophene-2,4-dicarboxylate
@<TRIPOS>ATOM
      1 C1          1.2092    3.5722   -2.5113 C.3       1 <0>        -0.1208
      2 C2          1.2487    4.2650   -1.1736 C.2       1 <0>         0.0360
      3 C3          1.2322    3.5424    0.0093 C.2       1 <0>        -0.2221
      4 C4          1.2659    4.2592    1.2107 C.2       1 <0>         0.0979
      5 S1          1.3305    5.9070    0.6770 S.3       1 <0>         0.3425
      6 C5          1.3026    5.6303   -1.0839 C.2       1 <0>        -0.2897
      7 C6          1.3298    6.6160   -2.1639 C.2       1 <0>         0.5581
      8 O1          1.3038    6.2488   -3.3234 O.2       1 <0>        -0.4905
      9 O2          1.3838    7.9327   -1.8742 O.3       1 <0>        -0.3492
     10 C7          1.4078    8.8394   -2.9784 C.3       1 <0>         0.0358
     11 N1          1.2526    3.7732    2.5032 N.am      1 <0>        -0.6089
     12 C8          1.2910    4.6277    3.5448 C.2       1 <0>         0.4950
     13 O3          1.3372    5.8232    3.3470 O.2       1 <0>        -0.4747
     14 C9          1.2765    4.0974    4.9554 C.3       1 <0>         0.0849
     15 N2          1.3249    5.2173    5.8986 N.am      1 <0>        -0.5366
     16 C10         2.5262    5.6818    6.3310 C.2       1 <0>         0.3881
     17 N3          2.6521    6.6720    7.1612 N.2       1 <0>        -0.5119
     18 C11         1.5714    7.3146    7.6708 C.ar      1 <0>         0.1656
     19 C12         1.7063    8.3759    8.5685 C.ar      1 <0>        -0.0994
     20 C13         0.5824    8.9993    9.0613 C.ar      1 <0>        -0.0447
     21 C14        -0.6874    8.5861    8.6764 C.ar      1 <0>        -0.1114
     22 C15        -0.8458    7.5407    7.7920 C.ar      1 <0>        -0.0091
     23 C16         0.2795    6.8967    7.2818 C.ar      1 <0>        -0.1884
     24 C17         0.1723    5.7761    6.3357 C.2       1 <0>         0.5579
     25 O4         -0.9110    5.3668    5.9604 O.2       1 <0>        -0.4976
     26 Br1        -2.2104    9.4649    9.3720 Br        1 <0>        -0.0321
     27 C18         1.1753    2.0762    0.0020 C.2       1 <0>         0.5312
     28 O5          2.2040    1.4279   -0.0113 O.2       1 <0>        -0.4862
     29 O6         -0.0176    1.4478    0.0100 O.3       1 <0>        -0.3486
     30 C19         0.0021   -0.0041    0.0020 C.3       1 <0>         0.0307
     31 H1          0.1729    3.4447   -2.8240 H         1 <0>         0.0877
     32 H2          1.7396    4.1750   -3.2485 H         1 <0>         0.1001
     33 H3          1.6867    2.5958   -2.4290 H         1 <0>         0.0674
     34 H4          1.4513    9.8632   -2.6070 H         1 <0>         0.1064
     35 H5          2.2845    8.6388   -3.5943 H         1 <0>         0.0643
     36 H6          0.5059    8.7078   -3.5763 H         1 <0>         0.0644
     37 H7          1.2157    2.8170    2.6615 H         1 <0>         0.4264
     38 H8          0.3640    3.5240    5.1186 H         1 <0>         0.1437
     39 H9          2.1425    3.4540    5.1106 H         1 <0>         0.1432
     40 H10         3.4226    5.2056    5.9619 H         1 <0>         0.2054
     41 H11         2.6880    8.7062    8.8743 H         1 <0>         0.1525
     42 H12         0.6887    9.8198    9.7554 H         1 <0>         0.1473
     43 H13        -1.8349    7.2234    7.4963 H         1 <0>         0.1493
     44 H14        -1.0205   -0.3814    0.0098 H         1 <0>         0.1068
     45 H15         0.5123   -0.3556   -0.8948 H         1 <0>         0.0675
     46 H16         0.5293   -0.3651    0.8851 H         1 <0>         0.0656
@<TRIPOS>BOND
     1    1    2 1
     2    1   31 1
     3    1   32 1
     4    1   33 1
     5    2    6 2
     6    2    3 1
     7    3    4 2
     8    3   27 1
     9    4    5 1
    10    4   11 1
    11    5    6 1
    12    6    7 1
    13    7    8 2
    14    7    9 1
    15    9   10 1
    16   10   34 1
    17   10   35 1
    18   10   36 1
    19   11   12 am
    20   11   37 1
    21   12   13 2
    22   12   14 1
    23   14   15 1
    24   14   38 1
    25   14   39 1
    26   15   24 am
    27   15   16 1
    28   16   17 2
    29   16   40 1
    30   17   18 1
    31   18   23 ar
    32   18   19 ar
    33   19   20 ar
    34   19   41 1
    35   20   21 ar
    36   20   42 1
    37   21   22 ar
    38   21   26 1
    39   22   23 ar
    40   22   43 1
    41   23   24 1
    42   24   25 2
    43   27   28 2
    44   27   29 1
    45   29   30 1
    46   30   44 1
    47   30   45 1
    48   30   46 1
