@<TRIPOS>MOLECULE
ZINC29212901
   52    56     0     0     0
SMALL
USER_CHARGES
(5R)-5-cyclopropyl-5-methyl-3-[2-(8-methyl-1,3,4,5-tetrahydropyrido[4,3-b]indol-2-yl)-2-oxo-ethyl]imidazolidine-2,4-dione
@<TRIPOS>ATOM
      1 C1         -4.1027    4.4352    5.2845 C.3       1 <0>        -0.1147
      2 C2         -3.1475    3.5041    4.5833 C.ar      1 <0>        -0.1137
      3 C3         -2.4932    2.5327    5.3232 C.ar      1 <0>        -0.0983
      4 C4         -1.6023    1.6426    4.7492 C.ar      1 <0>        -0.1279
      5 C5         -1.3853    1.7625    3.3780 C.ar      1 <0>         0.0896
      6 C6         -2.0582    2.7590    2.6249 C.ar      1 <0>        -0.0925
      7 C7         -2.9541    3.6450    3.2313 C.ar      1 <0>        -0.0702
      8 C8         -1.6048    2.5998    1.2597 C.2       1 <0>        -0.1918
      9 C9         -0.7234    1.5748    1.2478 C.2       1 <0>         0.0915
     10 N1         -0.5910    1.0667    2.5132 N.pl3     1 <0>        -0.5948
     11 H1          0.0273    0.2351    2.8822 H         1 <0>         0.4413
     12 C10        -0.0127    1.0858    0.0080 C.3       1 <0>        -0.0767
     13 C11        -0.7578    1.5954   -1.2308 C.3       1 <0>         0.1094
     14 N2         -1.0750    3.0199   -1.0481 N.am      1 <0>        -0.6083
     15 C12        -1.9992    3.3927    0.0375 C.3       1 <0>         0.1917
     16 C13        -0.5352    3.9582   -1.8510 C.2       1 <0>         0.5092
     17 O1         -0.8085    5.1281   -1.6854 O.2       1 <0>        -0.5226
     18 C14         0.4079    3.5536   -2.9546 C.3       1 <0>         0.0972
     19 N3          0.8532    4.7470   -3.6784 N.am      1 <0>        -0.5633
     20 C15         1.9456    5.4660   -3.3530 C.2       1 <0>         0.5357
     21 O2          2.7152    5.2562   -2.4402 O.2       1 <0>        -0.4606
     22 C16         2.0113    6.5923   -4.3654 C.3       1 <0>         0.1183
     23 N4          0.8382    6.3548   -5.2242 N.am      1 <0>        -0.7257
     24 C17         0.2289    5.2542   -4.7475 C.2       1 <0>         0.7189
     25 O3         -0.7781    4.7761   -5.2318 O.2       1 <0>        -0.5425
     26 C18         1.9058    7.9500   -3.6678 C.3       1 <0>        -0.1589
     27 C19         3.3023    6.5075   -5.1821 C.3       1 <0>        -0.2393
     28 C20         4.3979    7.5317   -4.8799 C.3       1 <0>        -0.1175
     29 C21         3.5870    7.6379   -6.1730 C.3       1 <0>        -0.1099
     30 H2         -4.1384    4.1856    6.3552 H         1 <0>         0.0628
     31 H3         -5.1069    4.3264    4.8489 H         1 <0>         0.0666
     32 H4         -3.7600    5.4731    5.1611 H         1 <0>         0.0664
     33 H5         -2.6852    2.4676    6.3840 H         1 <0>         0.1208
     34 H6         -1.0987    0.8894    5.3370 H         1 <0>         0.1278
     35 H7         -3.4686    4.4057    2.6629 H         1 <0>         0.1279
     36 H8          1.0190    1.4672    0.0023 H         1 <0>         0.0878
     37 H9          0.0030   -0.0141    0.0041 H         1 <0>         0.0941
     38 H10        -0.1217    1.4685   -2.1192 H         1 <0>         0.0958
     39 H11        -1.6878    1.0225   -1.3608 H         1 <0>         0.0883
     40 H12        -3.0357    3.1491   -0.2389 H         1 <0>         0.0801
     41 H13        -1.9213    4.4678    0.2570 H         1 <0>         0.0993
     42 H14         1.2795    3.0404   -2.5223 H         1 <0>         0.1263
     43 H15        -0.1097    2.8754   -3.6490 H         1 <0>         0.1311
     44 H16         0.6241    7.0336   -6.0629 H         1 <0>         0.4675
     45 H17         1.9554    8.7527   -4.4183 H         1 <0>         0.0830
     46 H18         2.7367    8.0619   -2.9557 H         1 <0>         0.0848
     47 H19         0.9494    8.0114   -3.1279 H         1 <0>         0.0700
     48 H20         3.2585    5.4102   -5.2448 H         1 <0>         0.1134
     49 H21         4.1624    8.0543   -3.9410 H         1 <0>         0.1141
     50 H22         5.3644    7.0161   -4.7800 H         1 <0>         0.1085
     51 H23         3.8832    7.2100   -7.1421 H         1 <0>         0.1076
     52 H24         2.6812    8.2483   -6.3031 H         1 <0>         0.1027
@<TRIPOS>BOND
     1    1    2 1
     2    1   30 1
     3    1   31 1
     4    1   32 1
     5    2    7 ar
     6    2    3 ar
     7    3    4 ar
     8    3   33 1
     9    4    5 ar
    10    4   34 1
    11    5   10 1
    12    5    6 ar
    13    6    7 ar
    14    6    8 1
    15    7   35 1
    16    8   15 1
    17    8    9 2
    18    9   10 1
    19    9   12 1
    20   10   11 1
    21   12   13 1
    22   12   36 1
    23   12   37 1
    24   13   14 1
    25   13   38 1
    26   13   39 1
    27   14   15 1
    28   14   16 am
    29   15   40 1
    30   15   41 1
    31   16   17 2
    32   16   18 1
    33   18   19 1
    34   18   42 1
    35   18   43 1
    36   19   24 am
    37   19   20 am
    38   20   21 2
    39   20   22 1
    40   22   23 1
    41   22   26 1
    42   22   27 1
    43   23   24 am
    44   23   44 1
    45   24   25 2
    46   26   45 1
    47   26   46 1
    48   26   47 1
    49   27   29 1
    50   27   28 1
    51   27   48 1
    52   28   29 1
    53   28   49 1
    54   28   50 1
    55   29   51 1
    56   29   52 1
