@<TRIPOS>MOLECULE
ZINC44335781
   45    46     0     0     0
SMALL
USER_CHARGES

@<TRIPOS>ATOM
      1 C1         -0.0184    1.5028    0.0103 C.3       1 <0>        -0.1375
      2 C2          0.0021   -0.0041    0.0020 C.ar      1 <0>        -0.0475
      3 C3          0.0058   -0.6881   -1.2000 C.ar      1 <0>        -0.1224
      4 C4          0.0250   -2.0705   -1.2125 C.ar      1 <0>        -0.1152
      5 C5          0.0405   -2.7741   -0.0226 C.ar      1 <0>        -0.0395
      6 C6          0.0369   -2.0903    1.1869 C.ar      1 <0>         0.2221
      7 C7          0.0229   -0.7006    1.1955 C.ar      1 <0>        -0.0343
      8 Cl1         0.0254    0.1592    2.7036 Cl        1 <0>        -0.0221
      9 N1          0.0526   -2.7985    2.3924 N.pl3     1 <0>        -0.6740
     10 C8         -1.2031   -3.2005    3.0409 C.3       1 <0>         0.1473
     11 C9         -1.1609   -4.7090    3.3044 C.3       1 <0>        -0.1376
     12 C10         0.0974   -5.0477    4.1069 C.3       1 <0>        -0.1171
     13 C11         1.3388   -4.6638    3.2984 C.3       1 <0>        -0.1377
     14 C12         1.3251   -3.1600    3.0317 C.3       1 <0>         0.1495
     15 Cl2         0.0640   -4.5098   -0.0395 Cl        1 <0>        -0.0266
     16 C13        -0.0116    0.0751   -2.4992 C.3       1 <0>        -0.0928
     17 C14         1.4181    0.4623   -2.8825 C.3       1 <0>         0.0413
     18 H1          1.8780    1.0123   -2.0615 H         1 <0>         0.1809
     19 C15         1.3905    1.3294   -4.1148 C.2       1 <0>         0.4541
     20 O1          1.6294    0.8486   -5.1972 O.2       1 <0>        -0.4812
     21 O2          1.1006    2.6358   -4.0098 O.3       1 <0>        -0.3260
     22 C16         1.0924    3.3976   -5.2188 C.3       1 <0>         0.0286
     23 N2          2.1978   -0.7523   -3.1558 N.4       1 <0>        -0.6242
     24 H2          1.0042    1.8801    0.0026 H         1 <0>         0.0852
     25 H3         -0.5455    1.8639   -0.8728 H         1 <0>         0.0819
     26 H4         -0.5286    1.8543    0.9071 H         1 <0>         0.0880
     27 H5          0.0274   -2.6014   -2.1530 H         1 <0>         0.1424
     28 H6         -1.3136   -2.6676    3.9853 H         1 <0>         0.0606
     29 H7         -2.0432   -2.9672    2.3868 H         1 <0>         0.0666
     30 H8         -2.0441   -5.0042    3.8709 H         1 <0>         0.0720
     31 H9         -1.1417   -5.2438    2.3548 H         1 <0>         0.0664
     32 H10         0.0896   -4.4936    5.0455 H         1 <0>         0.0639
     33 H11         0.1173   -6.1171    4.3169 H         1 <0>         0.0639
     34 H12         2.2348   -4.9267    3.8607 H         1 <0>         0.0715
     35 H13         1.3345   -5.1990    2.3489 H         1 <0>         0.0657
     36 H14         2.1525   -2.9000    2.3715 H         1 <0>         0.0637
     37 H15         1.4253   -2.6237    3.9753 H         1 <0>         0.0596
     38 H16        -0.4410   -0.5500   -3.2822 H         1 <0>         0.1143
     39 H17        -0.6134    0.9765   -2.3831 H         1 <0>         0.1405
     40 H18         0.8442    4.4347   -4.9930 H         1 <0>         0.1224
     41 H19         2.0774    3.3526   -5.6833 H         1 <0>         0.0746
     42 H20         0.3493    2.9867   -5.9022 H         1 <0>         0.0755
     43 H21         1.7720   -1.2614   -3.9158 H         1 <0>         0.4433
     44 H22         3.1406   -0.4970   -3.4085 H         1 <0>         0.4441
     45 H23         2.2162   -1.3329   -2.3307 H         1 <0>         0.4460
@<TRIPOS>BOND
     1    1    2 1
     2    1   24 1
     3    1   25 1
     4    1   26 1
     5    2    7 ar
     6    2    3 ar
     7    3    4 ar
     8    3   16 1
     9    4    5 ar
    10    4   27 1
    11    5    6 ar
    12    5   15 1
    13    6    7 ar
    14    6    9 1
    15    7    8 1
    16    9   14 1
    17    9   10 1
    18   10   11 1
    19   10   28 1
    20   10   29 1
    21   11   12 1
    22   11   30 1
    23   11   31 1
    24   12   13 1
    25   12   32 1
    26   12   33 1
    27   13   14 1
    28   13   34 1
    29   13   35 1
    30   14   36 1
    31   14   37 1
    32   16   17 1
    33   16   38 1
    34   16   39 1
    35   17   18 1
    36   17   19 1
    37   17   23 1
    38   19   20 2
    39   19   21 1
    40   21   22 1
    41   22   40 1
    42   22   41 1
    43   22   42 1
    44   23   43 1
    45   23   44 1
    46   23   45 1
