@<TRIPOS>MOLECULE
ZINC67271781
   41    43     0     0     0
SMALL
USER_CHARGES

@<TRIPOS>ATOM
      1 C1         -0.0184    1.5028    0.0103 C.3       1 <0>        -0.0901
      2 C2          0.0021   -0.0041    0.0020 C.2       1 <0>        -0.2251
      3 C3          0.0086   -0.8210   -1.1319 C.2       1 <0>         0.0034
      4 N1          0.0279   -2.0691   -0.7396 N.2       1 <0>        -0.2239
      5 N2          0.0344   -2.0917    0.6609 N.pl3     1 <0>        -0.4395
      6 H1          0.0481   -2.8850    1.2189 H         1 <0>         0.4577
      7 C4          0.0234   -0.8116    1.0975 C.2       1 <0>         0.3254
      8 N3          0.0297   -0.3948    2.4285 N.am      1 <0>        -0.6406
      9 C5          0.0516   -1.3071    3.4202 C.2       1 <0>         0.5254
     10 O1          0.0659   -2.4907    3.1553 O.2       1 <0>        -0.5209
     11 C6          0.0584   -0.8568    4.8584 C.3       1 <0>        -0.1061
     12 C7         -1.1989   -0.0317    5.1399 C.3       1 <0>        -0.1129
     13 C8         -1.1859    0.4343    6.5981 C.3       1 <0>        -0.1124
     14 C9         -1.1363   -0.7789    7.5203 C.3       1 <0>         0.1208
     15 C10         0.1017   -1.6225    7.2361 C.3       1 <0>        -0.1148
     16 C11         0.0840   -2.0810    5.7756 C.3       1 <0>        -0.0994
     17 C12        -1.1574   -0.3433    8.9673 C.2       1 <0>         0.5343
     18 O2         -0.3395    0.3455    9.5385 O.2       1 <0>        -0.4568
     19 N4         -2.2782   -0.8830    9.4897 N.am      1 <0>        -0.6803
     20 C13        -2.9562   -1.5904    8.5776 C.2       1 <0>         0.7040
     21 O3         -3.9982   -2.1710    8.8104 O.2       1 <0>        -0.5366
     22 N5         -2.3538   -1.5868    7.3731 N.am      1 <0>        -0.7162
     23 C14        -0.0049   -0.3457   -2.5619 C.3       1 <0>         0.5578
     24 F1          1.3098   -0.1796   -3.0105 F         1 <0>        -0.1653
     25 F2         -0.6546   -1.2919   -3.3618 F         1 <0>        -0.1645
     26 F3         -0.6824    0.8758   -2.6410 F         1 <0>        -0.1619
     27 H2          1.0042    1.8801    0.0026 H         1 <0>         0.0715
     28 H3         -0.5455    1.8639   -0.8728 H         1 <0>         0.0848
     29 H4         -0.5286    1.8543    0.9071 H         1 <0>         0.0646
     30 H5          0.0183    0.5517    2.6404 H         1 <0>         0.4312
     31 H6          0.9421   -0.2460    5.0433 H         1 <0>         0.1180
     32 H7         -1.2191    0.8364    4.4810 H         1 <0>         0.0845
     33 H8         -2.0829   -0.6441    4.9619 H         1 <0>         0.0769
     34 H9         -0.3097    1.0588    6.7720 H         1 <0>         0.0985
     35 H10        -2.0885    1.0099    6.8035 H         1 <0>         0.0859
     36 H11         0.9964   -1.0275    7.4192 H         1 <0>         0.0961
     37 H12         0.1052   -2.4942    7.8905 H         1 <0>         0.0850
     38 H13        -0.8031   -2.6884    5.5960 H         1 <0>         0.0774
     39 H14         0.9768   -2.6713    5.5691 H         1 <0>         0.0883
     40 H15        -2.5578   -0.7726   10.4119 H         1 <0>         0.4350
     41 H16        -2.6630   -2.0299    6.5675 H         1 <0>         0.4407
@<TRIPOS>BOND
     1    1    2 1
     2    1   27 1
     3    1   28 1
     4    1   29 1
     5    2    7 2
     6    2    3 1
     7    3    4 2
     8    3   23 1
     9    4    5 1
    10    5    6 1
    11    5    7 1
    12    7    8 1
    13    8    9 am
    14    8   30 1
    15    9   10 2
    16    9   11 1
    17   11   16 1
    18   11   12 1
    19   11   31 1
    20   12   13 1
    21   12   32 1
    22   12   33 1
    23   13   14 1
    24   13   34 1
    25   13   35 1
    26   14   22 1
    27   14   15 1
    28   14   17 1
    29   15   16 1
    30   15   36 1
    31   15   37 1
    32   16   38 1
    33   16   39 1
    34   17   18 2
    35   17   19 am
    36   19   20 am
    37   19   40 1
    38   20   21 2
    39   20   22 am
    40   22   41 1
    41   23   24 1
    42   23   25 1
    43   23   26 1
