@<TRIPOS>MOLECULE
ZINC04221560
   47    49     0     0     0
SMALL
USER_CHARGES
methyl 1-(4-chlorophenyl)sulfonyl-4-(4,5-dicarbamoyltriazol-1-yl)-pyrrolidine-2-carboxylate
@<TRIPOS>ATOM
      1 C1         -2.5937    0.5317   -0.0770 C.3       1 <0>         0.0348
      2 O1         -1.4649    1.4287    0.0951 O.3       1 <0>        -0.3528
      3 C2         -0.2482    0.9385   -0.1894 C.2       1 <0>         0.4493
      4 O2         -0.1302   -0.2022   -0.5698 O.2       1 <0>        -0.4793
      5 C3          0.9702    1.8129   -0.0405 C.3       1 <0>         0.1654
      6 H1          0.8340    2.4988    0.7956 H         1 <0>         0.1278
      7 C4          1.2059    2.6104   -1.3405 C.3       1 <0>        -0.1224
      8 C5          2.7515    2.6046   -1.4762 C.3       1 <0>         0.1267
      9 H2          3.2002    3.3887   -0.8663 H         1 <0>         0.1419
     10 C6          3.1068    1.2006   -0.9264 C.3       1 <0>         0.1155
     11 N1          2.1602    0.9787    0.1818 N.pl3     1 <0>        -0.9912
     12 S1          2.3982   -0.0409    1.4648 S.o2      1 <0>         2.7053
     13 O3          1.1126   -0.3334    1.9949 O.2       1 <0>        -0.9318
     14 O4          3.2868   -1.0556    1.0177 O.2       1 <0>        -0.9295
     15 C7          3.2578    0.8716    2.7029 C.ar      1 <0>        -0.6836
     16 C8          4.6365    0.9635    2.6613 C.ar      1 <0>        -0.0062
     17 C9          5.3109    1.6839    3.6290 C.ar      1 <0>        -0.1284
     18 C10         4.6068    2.3036    4.6460 C.ar      1 <0>         0.0210
     19 C11         3.2274    2.2065    4.6904 C.ar      1 <0>        -0.1293
     20 C12         2.5536    1.4906    3.7189 C.ar      1 <0>        -0.0058
     21 Cl1         5.4536    3.2031    5.8656 Cl        1 <0>        -0.0469
     22 N2          3.1561    2.7374   -2.8780 N.pl3     1 <0>        -0.2590
     23 C13         3.9917    3.6903   -3.3803 C.2       1 <0>         0.0061
     24 C14         4.0836    3.4209   -4.7432 C.2       1 <0>        -0.0238
     25 N3          3.3038    2.3491   -4.9579 N.2       1 <0>        -0.2227
     26 N4          2.7790    1.9784   -3.8452 N.2       1 <0>        -0.0439
     27 C15         4.8726    4.1657   -5.7484 C.2       1 <0>         0.6080
     28 O5          5.5383    5.1246   -5.4097 O.2       1 <0>        -0.5205
     29 N5          4.8534    3.7811   -7.0400 N.am      1 <0>        -0.8316
     30 C16         4.6600    4.7760   -2.6362 C.2       1 <0>         0.6046
     31 O6          5.8162    4.6486   -2.2828 O.2       1 <0>        -0.4937
     32 N6          3.9884    5.9085   -2.3486 N.am      1 <0>        -0.8334
     33 H3         -2.4694   -0.3370    0.5695 H         1 <0>         0.0693
     34 H4         -3.5146    1.0519    0.1865 H         1 <0>         0.1060
     35 H5         -2.6445    0.2070   -1.1162 H         1 <0>         0.0658
     36 H6          0.7423    2.1089   -2.1900 H         1 <0>         0.1109
     37 H7          0.8285    3.6283   -1.2424 H         1 <0>         0.1199
     38 H8          2.9697    0.4446   -1.6996 H         1 <0>         0.1059
     39 H9          4.1331    1.1854   -0.5597 H         1 <0>         0.1044
     40 H10         5.1864    0.4760    1.8698 H         1 <0>         0.1497
     41 H11         6.3877    1.7593    3.5939 H         1 <0>         0.1483
     42 H12         2.6771    2.6904    5.4838 H         1 <0>         0.1482
     43 H13         1.4769    1.4145    3.7536 H         1 <0>         0.1530
     44 H14         4.3222    3.0159   -7.3103 H         1 <0>         0.4120
     45 H15         5.3709    4.2696   -7.6992 H         1 <0>         0.4131
     46 H16         3.0903    6.0400   -2.6909 H         1 <0>         0.4059
     47 H17         4.4030    6.5921   -1.7994 H         1 <0>         0.4170
@<TRIPOS>BOND
     1    1    2 1
     2    1   33 1
     3    1   34 1
     4    1   35 1
     5    2    3 1
     6    3    4 2
     7    3    5 1
     8    5    6 1
     9    5   11 1
    10    5    7 1
    11    7    8 1
    12    7   36 1
    13    7   37 1
    14    8    9 1
    15    8   10 1
    16    8   22 1
    17   10   11 1
    18   10   38 1
    19   10   39 1
    20   11   12 1
    21   12   13 2
    22   12   14 2
    23   12   15 1
    24   15   20 ar
    25   15   16 ar
    26   16   17 ar
    27   16   40 1
    28   17   18 ar
    29   17   41 1
    30   18   19 ar
    31   18   21 1
    32   19   20 ar
    33   19   42 1
    34   20   43 1
    35   22   26 1
    36   22   23 1
    37   23   24 2
    38   23   30 1
    39   24   25 1
    40   24   27 1
    41   25   26 2
    42   27   28 2
    43   27   29 am
    44   29   44 1
    45   29   45 1
    46   30   31 2
    47   30   32 am
    48   32   46 1
    49   32   47 1
