@<TRIPOS>MOLECULE
ZINC40811364
   55    58     0     0     0
SMALL
USER_CHARGES

@<TRIPOS>ATOM
      1 C1         -0.0184    1.5028    0.0103 C.3       1 <0>        -0.1182
      2 C2          0.0021   -0.0041    0.0020 C.ar      1 <0>        -0.0892
      3 C3          0.0057   -0.6879   -1.2011 C.ar      1 <0>        -0.0910
      4 C4          0.0240   -2.0711   -1.2177 C.ar      1 <0>        -0.1202
      5 C5          0.0387   -2.7781   -0.0330 C.ar      1 <0>        -0.0949
      6 C6          0.0356   -2.0947    1.1841 C.ar      1 <0>        -0.1289
      7 C7          0.0228   -0.6985    1.1936 C.ar      1 <0>        -0.0561
      8 C8          0.0508   -2.8455    2.4570 C.2       1 <0>         0.5772
      9 O1          0.0481   -2.2473    3.5158 O.2       1 <0>        -0.4946
     10 N1          0.0677   -4.1931    2.4444 N.am      1 <0>        -0.5804
     11 N2          0.0821   -4.9048    3.6510 N.2       1 <0>        -0.2145
     12 C9          0.0984   -6.2023    3.6389 C.2       1 <0>         0.1637
     13 C10         0.1091   -7.0064    2.3470 C.3       1 <0>        -0.1189
     14 C11        -0.8545   -8.1868    2.5086 C.3       1 <0>        -0.1098
     15 C12        -0.3602   -9.1423    3.5980 C.3       1 <0>        -0.0448
     16 C13        -0.1017   -8.3666    4.8646 C.2       1 <0>         0.0702
     17 C14         0.1142   -7.0076    4.8801 C.2       1 <0>        -0.1546
     18 C15         0.3221   -6.6285    6.2120 C.2       1 <0>        -0.0169
     19 C16         0.2327   -7.7734    6.9535 C.2       1 <0>        -0.1004
     20 O2         -0.0312   -8.8079    6.1183 O.3       1 <0>        -0.1491
     21 C17         0.3832   -7.8648    8.4102 C.2       1 <0>         0.6078
     22 O3          0.6083   -6.8626    9.0627 O.2       1 <0>        -0.5130
     23 N3          0.2722   -9.0587    9.0256 N.am      1 <0>        -0.5136
     24 N4          0.4159   -9.1460   10.4165 N.pl3     1 <0>        -0.5407
     25 C18         0.3008  -10.3833   11.0542 C.ar      1 <0>         0.2144
     26 C19         0.0495  -11.5292   10.3103 C.ar      1 <0>        -0.2006
     27 C20        -0.0632  -12.7510   10.9440 C.ar      1 <0>        -0.0669
     28 C21         0.0733  -12.8345   12.3176 C.ar      1 <0>        -0.1738
     29 C22         0.3234  -11.6958   13.0612 C.ar      1 <0>        -0.0653
     30 C23         0.4430  -10.4716   12.4332 C.ar      1 <0>        -0.1849
     31 C24         0.5907   -5.2373    6.7251 C.3       1 <0>        -0.0973
     32 H1          1.0042    1.8801    0.0026 H         1 <0>         0.0753
     33 H2         -0.5455    1.8639   -0.8728 H         1 <0>         0.0707
     34 H3         -0.5286    1.8543    0.9071 H         1 <0>         0.0712
     35 H4         -0.0061   -0.1392   -2.1313 H         1 <0>         0.1303
     36 H5          0.0263   -2.5986   -2.1601 H         1 <0>         0.1321
     37 H6          0.0522   -3.8579   -0.0473 H         1 <0>         0.1218
     38 H7          0.0244   -0.1636    2.1318 H         1 <0>         0.1392
     39 H8          0.0699   -4.6702    1.5998 H         1 <0>         0.3850
     40 H9         -0.2167   -6.3766    1.5192 H         1 <0>         0.0787
     41 H10         1.1155   -7.3774    2.1533 H         1 <0>         0.0999
     42 H11        -1.8406   -7.8107    2.7810 H         1 <0>         0.0771
     43 H12        -0.9247   -8.7252    1.5634 H         1 <0>         0.0945
     44 H13        -1.1181   -9.9029    3.7857 H         1 <0>         0.1010
     45 H14         0.5624   -9.6212    3.2702 H         1 <0>         0.1045
     46 H15         0.0927   -9.8576    8.5055 H         1 <0>         0.4259
     47 H16         0.5953   -8.3471   10.9366 H         1 <0>         0.4359
     48 H17        -0.0578  -11.4646    9.2376 H         1 <0>         0.1147
     49 H18        -0.2585  -13.6423   10.3662 H         1 <0>         0.1242
     50 H19        -0.0161  -13.7912   12.8107 H         1 <0>         0.1220
     51 H20         0.4294  -11.7645   14.1338 H         1 <0>         0.1268
     52 H21         0.6428   -9.5833   13.0141 H         1 <0>         0.1262
     53 H22        -0.3544   -4.7490    6.9630 H         1 <0>         0.0816
     54 H23         1.2065   -5.2936    7.6227 H         1 <0>         0.0862
     55 H24         1.1141   -4.6629    5.9608 H         1 <0>         0.0806
@<TRIPOS>BOND
     1    1    2 1
     2    1   32 1
     3    1   33 1
     4    1   34 1
     5    2    7 ar
     6    2    3 ar
     7    3    4 ar
     8    3   35 1
     9    4    5 ar
    10    4   36 1
    11    5    6 ar
    12    5   37 1
    13    6    7 ar
    14    6    8 1
    15    7   38 1
    16    8    9 2
    17    8   10 am
    18   10   11 1
    19   10   39 1
    20   11   12 2
    21   12   17 1
    22   12   13 1
    23   13   14 1
    24   13   40 1
    25   13   41 1
    26   14   15 1
    27   14   42 1
    28   14   43 1
    29   15   16 1
    30   15   44 1
    31   15   45 1
    32   16   20 1
    33   16   17 2
    34   17   18 1
    35   18   19 2
    36   18   31 1
    37   19   20 1
    38   19   21 1
    39   21   22 2
    40   21   23 am
    41   23   24 1
    42   23   46 1
    43   24   25 1
    44   24   47 1
    45   25   30 ar
    46   25   26 ar
    47   26   27 ar
    48   26   48 1
    49   27   28 ar
    50   27   49 1
    51   28   29 ar
    52   28   50 1
    53   29   30 ar
    54   29   51 1
    55   30   52 1
    56   31   53 1
    57   31   54 1
    58   31   55 1
