@<TRIPOS>MOLECULE
ZINC24850074
   57    61     0     0     0
SMALL
USER_CHARGES
N-[4-[[(4R)-4-indan-5-yl-4-methyl-2,5-dioxo-imidazolidin-1-yl]methyl]-2-oxo-chromen-7-yl]acetamide
@<TRIPOS>ATOM
      1 C1         -3.2757    3.8272   -6.2260 C.3       1 <0>        -0.1748
      2 C2         -2.5628    3.5725   -4.9230 C.2       1 <0>         0.5195
      3 O1         -2.6265    4.3880   -4.0275 O.2       1 <0>        -0.5188
      4 N1         -1.8545    2.4386   -4.7528 N.am      1 <0>        -0.6871
      5 C3         -1.1172    2.2454   -3.5841 C.2       1 <0>         0.2474
      6 C4          0.1009    1.5677   -3.6384 C.2       1 <0>        -0.1383
      7 C5          0.8335    1.3720   -2.5042 C.2       1 <0>        -0.0179
      8 C6          0.3594    1.8524   -1.2778 C.2       1 <0>        -0.1736
      9 C7          1.1245    1.6557   -0.0449 C.2       1 <0>         0.1286
     10 C8          0.6118    2.1456    1.1138 C.2       1 <0>        -0.2718
     11 C9         -0.6284    2.8164    1.1037 C.2       1 <0>         0.5342
     12 O2         -1.0793    3.2460    2.1504 O.3       1 <0>        -0.3437
     13 O3         -1.3219    2.9990   -0.0309 O.3       1 <0>        -0.2353
     14 C10        -0.8690    2.5366   -1.2160 C.2       1 <0>         0.1664
     15 C11        -1.6011    2.7282   -2.3777 C.2       1 <0>        -0.1390
     16 C12         2.4446    0.9289   -0.0609 C.3       1 <0>         0.1322
     17 N2          3.0464    0.9800    1.2738 N.am      1 <0>        -0.5863
     18 C13         2.9157    0.0104    2.2007 C.2       1 <0>         0.5323
     19 O4          2.3014   -1.0290    2.0916 O.2       1 <0>        -0.4431
     20 C14         3.6974    0.4895    3.4078 C.3       1 <0>         0.1621
     21 N3          4.2275    1.7960    2.9808 N.am      1 <0>        -0.7212
     22 C15         3.7983    1.9922    1.7211 C.2       1 <0>         0.7109
     23 O5          4.0613    2.9802    1.0639 O.2       1 <0>        -0.5301
     24 C16         2.7742    0.6524    4.6170 C.3       1 <0>        -0.1476
     25 C17         4.8228   -0.4620    3.7226 C.ar      1 <0>        -0.1062
     26 C18         4.6935   -1.8073    3.4309 C.ar      1 <0>        -0.1106
     27 C19         5.7283   -2.6766    3.7149 C.ar      1 <0>        -0.1005
     28 C20         6.8919   -2.2072    4.3014 C.ar      1 <0>        -0.0801
     29 C21         7.0189   -0.8632    4.5982 C.ar      1 <0>        -0.0931
     30 C22         5.9821    0.0079    4.3078 C.ar      1 <0>        -0.0833
     31 C23         8.3704   -0.6039    5.2286 C.3       1 <0>        -0.0891
     32 C24         9.2207   -1.8457    4.8862 C.3       1 <0>        -0.1182
     33 C25         8.1493   -2.9430    4.7119 C.3       1 <0>        -0.0856
     34 H1         -3.1031    2.9828   -6.9095 H         1 <0>         0.0870
     35 H2         -2.8899    4.7517   -6.6804 H         1 <0>         0.1092
     36 H3         -4.3545    3.9330   -6.0391 H         1 <0>         0.1086
     37 H4         -1.8577    1.6654   -5.5352 H         1 <0>         0.4563
     38 H5          0.4667    1.1963   -4.5842 H         1 <0>         0.1611
     39 H6          1.7760    0.8468   -2.5523 H         1 <0>         0.1625
     40 H7          1.1506    2.0177    2.0411 H         1 <0>         0.1804
     41 H8         -2.5453    3.2513   -2.3430 H         1 <0>         0.1737
     42 H9          2.2822   -0.1199   -0.3500 H         1 <0>         0.1541
     43 H10         3.1187    1.4088   -0.7857 H         1 <0>         0.1515
     44 H11         4.8449    2.3909    3.6699 H         1 <0>         0.4768
     45 H12         3.3595    1.0001    5.4810 H         1 <0>         0.0903
     46 H13         2.3080   -0.3150    4.8553 H         1 <0>         0.0906
     47 H14         1.9914    1.3892    4.3840 H         1 <0>         0.0683
     48 H15         3.7857   -2.1772    2.9775 H         1 <0>         0.1385
     49 H16         5.6284   -3.7266    3.4826 H         1 <0>         0.1277
     50 H17         6.0806    1.0581    4.5395 H         1 <0>         0.1199
     51 H18         8.8038    0.3131    4.8027 H         1 <0>         0.0775
     52 H19         8.2509   -0.4825    6.3153 H         1 <0>         0.0843
     53 H20         9.7925   -1.6561    3.9658 H         1 <0>         0.0754
     54 H21         9.9155   -2.0537    5.7132 H         1 <0>         0.0822
     55 H22         7.9672   -3.4836    5.6524 H         1 <0>         0.0874
     56 H23         8.4283   -3.6595    3.9252 H         1 <0>         0.0804
     57 H24        -2.0456    3.7715    2.1584 H         1 <0>         0.5180
@<TRIPOS>BOND
     1    1    2 1
     2    1   34 1
     3    1   35 1
     4    1   36 1
     5    2    3 2
     6    2    4 am
     7    4    5 2
     8    4   37 1
     9    5   15 1
    10    5    6 1
    11    6    7 2
    12    6   38 1
    13    7    8 1
    14    7   39 1
    15    8   14 1
    16    8    9 2
    17    9   10 1
    18    9   16 1
    19   10   11 2
    20   10   40 1
    21   11   12 1
    22   11   13 1
    23   12   57 1
    24   13   14 1
    25   14   15 2
    26   15   41 1
    27   16   17 1
    28   16   42 1
    29   16   43 1
    30   17   22 am
    31   17   18 am
    32   18   19 2
    33   18   20 1
    34   20   21 1
    35   20   24 1
    36   20   25 1
    37   21   22 am
    38   21   44 1
    39   22   23 2
    40   24   45 1
    41   24   46 1
    42   24   47 1
    43   25   30 ar
    44   25   26 ar
    45   26   27 ar
    46   26   48 1
    47   27   28 ar
    48   27   49 1
    49   28   33 1
    50   28   29 ar
    51   29   30 ar
    52   29   31 1
    53   30   50 1
    54   31   32 1
    55   31   51 1
    56   31   52 1
    57   32   33 1
    58   32   53 1
    59   32   54 1
    60   33   55 1
    61   33   56 1
