@<TRIPOS>MOLECULE
ZINC05225358
   55    58     0     0     0
SMALL
USER_CHARGES
ethyl 2-[(9,10-dioxo-2-anthryl)sulfonylamino]-3-(4-hydroxyphenyl)-propanoate
@<TRIPOS>ATOM
      1 C1          0.1628    6.7478    5.7233 C.3       1 <0>        -0.1544
      2 C2         -1.0135    7.1096    4.8142 C.3       1 <0>         0.0627
      3 O1         -0.7193    8.3454    4.1108 O.3       1 <0>        -0.3509
      4 C3         -1.6567    8.8041    3.2667 C.2       1 <0>         0.4384
      5 O2         -2.6889    8.1933    3.1204 O.2       1 <0>        -0.4864
      6 C4         -1.4218   10.0809    2.5015 C.3       1 <0>         0.1644
      7 H1         -0.5353    9.9722    1.8766 H         1 <0>         0.1358
      8 C5         -1.2140   11.2342    3.4852 C.3       1 <0>        -0.0743
      9 C6         -0.8579   12.4854    2.7245 C.ar      1 <0>        -0.0993
     10 C7          0.4674   12.7811    2.4640 C.ar      1 <0>        -0.0914
     11 C8          0.7962   13.9245    1.7619 C.ar      1 <0>        -0.1404
     12 C9         -0.2042   14.7820    1.3275 C.ar      1 <0>         0.1094
     13 C10        -1.5329   14.4859    1.5950 C.ar      1 <0>        -0.1443
     14 C11        -1.8567   13.3386    2.2930 C.ar      1 <0>        -0.0956
     15 O3          0.1170   15.9103    0.6415 O.3       1 <0>        -0.4991
     16 N1         -2.5838   10.3641    1.6555 N.pl3     1 <0>        -1.0880
     17 S1         -2.5922    9.8812    0.0715 S.o2      1 <0>         2.6899
     18 O4         -1.3580   10.3070   -0.4894 O.2       1 <0>        -0.9347
     19 O5         -3.8483   10.2722   -0.4657 O.2       1 <0>        -0.9397
     20 C12        -2.5677    8.1194    0.0638 C.ar      1 <0>        -0.6615
     21 C13        -3.7581    7.4158    0.0723 C.ar      1 <0>         0.0202
     22 C14        -3.7543    6.0318    0.0664 C.ar      1 <0>        -0.0845
     23 C15        -2.5456    5.3416    0.0524 C.ar      1 <0>        -0.0631
     24 C16        -1.3349    6.0569    0.0442 C.ar      1 <0>        -0.1388
     25 C17        -1.3570    7.4487    0.0499 C.ar      1 <0>         0.0206
     26 C18        -0.0470    5.3320    0.0282 C.2       1 <0>         0.4349
     27 O6          0.9990    5.9501    0.0212 O.2       1 <0>        -0.4213
     28 C19        -0.0334    3.8541    0.0216 C.ar      1 <0>        -0.1188
     29 C20         1.1749    3.1631    0.0069 C.ar      1 <0>        -0.0667
     30 C21         1.1781    1.7791    0.0004 C.ar      1 <0>        -0.0950
     31 C22        -0.0126    1.0758    0.0080 C.ar      1 <0>        -0.0966
     32 C23        -1.2229    1.7470    0.0173 C.ar      1 <0>        -0.0658
     33 C24        -1.2442    3.1388    0.0298 C.ar      1 <0>        -0.1222
     34 C25        -2.5321    3.8637    0.0456 C.2       1 <0>         0.4310
     35 O7         -3.5781    3.2456    0.0533 O.2       1 <0>        -0.4158
     36 H2          0.3230    7.5479    6.4459 H         1 <0>         0.0695
     37 H3         -0.0580    5.8202    6.2513 H         1 <0>         0.0815
     38 H4          1.0614    6.6176    5.1202 H         1 <0>         0.0686
     39 H5         -1.9121    7.2399    5.4172 H         1 <0>         0.0730
     40 H6         -1.1736    6.3095    4.0915 H         1 <0>         0.0684
     41 H7         -2.1319   11.4006    4.0490 H         1 <0>         0.0913
     42 H8         -0.4057   10.9844    4.1724 H         1 <0>         0.1071
     43 H9          1.2461   12.1155    2.8062 H         1 <0>         0.1313
     44 H10         1.8312   14.1526    1.5546 H         1 <0>         0.1313
     45 H11        -2.3135   15.1517    1.2576 H         1 <0>         0.1308
     46 H12        -2.8909   13.1077    2.5015 H         1 <0>         0.1264
     47 H13         0.2634   16.6838    1.2031 H         1 <0>         0.3918
     48 H14        -3.3484   10.8344    2.0232 H         1 <0>         0.4277
     49 H15        -4.6969    7.9497    0.0832 H         1 <0>         0.1561
     50 H16        -4.6875    5.4883    0.0731 H         1 <0>         0.1555
     51 H17        -0.4310    8.0044    0.0437 H         1 <0>         0.1578
     52 H18         2.1084    3.7062    0.0009 H         1 <0>         0.1461
     53 H19         2.1166    1.2449   -0.0111 H         1 <0>         0.1410
     54 H20         0.0021   -0.0041    0.0020 H         1 <0>         0.1409
     55 H21        -2.1492    1.1918    0.0191 H         1 <0>         0.1453
@<TRIPOS>BOND
     1    1    2 1
     2    1   36 1
     3    1   37 1
     4    1   38 1
     5    2    3 1
     6    2   39 1
     7    2   40 1
     8    3    4 1
     9    4    5 2
    10    4    6 1
    11    6    7 1
    12    6    8 1
    13    6   16 1
    14    8    9 1
    15    8   41 1
    16    8   42 1
    17    9   14 ar
    18    9   10 ar
    19   10   11 ar
    20   10   43 1
    21   11   12 ar
    22   11   44 1
    23   12   13 ar
    24   12   15 1
    25   13   14 ar
    26   13   45 1
    27   14   46 1
    28   15   47 1
    29   16   17 1
    30   16   48 1
    31   17   18 2
    32   17   19 2
    33   17   20 1
    34   20   25 ar
    35   20   21 ar
    36   21   22 ar
    37   21   49 1
    38   22   23 ar
    39   22   50 1
    40   23   34 1
    41   23   24 ar
    42   24   25 ar
    43   24   26 1
    44   25   51 1
    45   26   27 2
    46   26   28 1
    47   28   33 ar
    48   28   29 ar
    49   29   30 ar
    50   29   52 1
    51   30   31 ar
    52   30   53 1
    53   31   32 ar
    54   31   54 1
    55   32   33 ar
    56   32   55 1
    57   33   34 1
    58   34   35 2
