@<TRIPOS>MOLECULE
ZINC45462626
   31    31     0     0     0
SMALL
USER_CHARGES

@<TRIPOS>ATOM
      1 C1         -0.0178    1.4648    0.0101 C.3       1 <0>        -0.0546
      2 N1          0.0021   -0.0041    0.0020 N.4       1 <0>        -0.4938
      3 C2          0.7126   -0.4907    1.1921 C.3       1 <0>         0.0102
      4 H1          1.7055   -0.0428    1.2310 H         1 <0>         0.1782
      5 C3          0.8424   -2.0135    1.1214 C.3       1 <0>         0.0302
      6 O1          1.6720   -2.3699    0.0138 O.3       1 <0>        -0.3053
      7 C4          1.8907   -3.6956   -0.1920 C.ar      1 <0>         0.1745
      8 C5          1.3141   -4.6340    0.6512 C.ar      1 <0>        -0.1905
      9 C6          1.5374   -5.9809    0.4398 C.ar      1 <0>        -0.0057
     10 C7          2.3350   -6.3945   -0.6112 C.ar      1 <0>        -0.0582
     11 C8          2.9113   -5.4619   -1.4535 C.ar      1 <0>        -0.0063
     12 C9          2.6869   -4.1130   -1.2497 C.ar      1 <0>        -0.0647
     13 Cl1         3.4053   -2.9423   -2.3113 Cl        1 <0>        -0.0148
     14 N2          2.5726   -7.8382   -0.8346 N.pl3     1 <0>         0.0286
     15 O2          2.0695   -8.6546   -0.0985 O.2       1 <0>        -0.1394
     16 O3          3.2699   -8.2010   -1.7532 O.3       1 <0>        -0.1386
     17 C10        -0.0593   -0.1092    2.4290 C.2       1 <0>         0.5158
     18 O4         -1.2367    0.1700    2.3469 O.2       1 <0>        -0.5105
     19 N3          0.5587   -0.0784    3.6263 N.am      1 <0>        -0.8182
     20 H2          1.0047    1.8421    0.0024 H         1 <0>         0.1277
     21 H3         -0.5450    1.8259   -0.8730 H         1 <0>         0.1380
     22 H4         -0.5280    1.8163    0.9069 H         1 <0>         0.1288
     23 H5         -0.9445   -0.3533    0.0092 H         1 <0>         0.4383
     24 H6          1.2897   -2.3833    2.0441 H         1 <0>         0.1235
     25 H7         -0.1451   -2.4568    0.9932 H         1 <0>         0.1076
     26 H8          0.6912   -4.3119    1.4726 H         1 <0>         0.1613
     27 H9          1.0887   -6.7116    1.0965 H         1 <0>         0.1711
     28 H10         3.5339   -5.7875   -2.2737 H         1 <0>         0.1780
     29 H11         1.5004   -0.3018    3.6919 H         1 <0>         0.4157
     30 H12         0.0619    0.1671    4.4224 H         1 <0>         0.4296
     31 H13         0.4744   -0.3295   -0.8281 H         1 <0>         0.4436
@<TRIPOS>BOND
     1    1    2 1
     2    1   20 1
     3    1   21 1
     4    1   22 1
     5    2    3 1
     6    2   23 1
     7    2   31 1
     8    3    4 1
     9    3    5 1
    10    3   17 1
    11    5    6 1
    12    5   24 1
    13    5   25 1
    14    6    7 1
    15    7   12 ar
    16    7    8 ar
    17    8    9 ar
    18    8   26 1
    19    9   10 ar
    20    9   27 1
    21   10   11 ar
    22   10   14 1
    23   11   12 ar
    24   11   28 1
    25   12   13 1
    26   14   15 2
    27   14   16 1
    28   17   18 2
    29   17   19 am
    30   19   29 1
    31   19   30 1
