@<TRIPOS>MOLECULE
ZINC09240148
   43    45     0     0     0
SMALL
USER_CHARGES
N-(4-sulfamoylphenyl)-2-[4-(trifluoromethoxy)phenyl]amino-thiazole-4-carboxamide
@<TRIPOS>ATOM
      1 C1          1.5100   -8.9835   -1.0821 C.ar      1 <0>        -0.1138
      2 C2          1.7322  -10.3464   -1.0927 C.ar      1 <0>        -0.1526
      3 C3          0.8695  -11.1954   -0.4152 C.ar      1 <0>         0.0938
      4 C4         -0.2137  -10.6759    0.2783 C.ar      1 <0>        -0.0887
      5 C5         -0.4338   -9.3127    0.2951 C.ar      1 <0>        -0.0998
      6 C6          0.4294   -8.4620   -0.3829 C.ar      1 <0>         0.1390
      7 N1          0.2070   -7.0798   -0.3664 N.pl3     1 <0>        -0.6077
      8 C7          1.2814   -6.2057   -0.3455 C.2       1 <0>         0.3641
      9 N2          1.2824   -4.8907   -0.2573 N.2       1 <0>        -0.5506
     10 C8          2.4240   -4.1992   -0.2515 C.2       1 <0>         0.0303
     11 C9          3.6137   -4.8774   -0.3450 C.2       1 <0>        -0.1520
     12 S1          3.0298   -6.5648   -0.4317 S.3       1 <0>         0.0559
     13 C10         2.4071   -2.7312   -0.1523 C.2       1 <0>         0.5964
     14 O1          3.4530   -2.1097   -0.1482 O.2       1 <0>        -0.5049
     15 N3          1.2330   -2.0750   -0.0660 N.am      1 <0>        -0.6600
     16 C11         1.2124   -0.6766   -0.0588 C.ar      1 <0>         0.2072
     17 C12         0.1735    0.0073   -0.6769 C.ar      1 <0>        -0.1654
     18 C13         0.1559    1.3882   -0.6675 C.ar      1 <0>         0.0026
     19 C14         1.1711    2.0899   -0.0436 C.ar      1 <0>        -0.6934
     20 C15         2.2068    1.4120    0.5728 C.ar      1 <0>         0.0027
     21 C16         2.2305    0.0312    0.5670 C.ar      1 <0>        -0.1450
     22 S2          1.1447    3.8517   -0.0339 S.o2      1 <0>         2.7033
     23 O2          2.4892    4.2770    0.1413 O.2       1 <0>        -0.9628
     24 O3          0.3580    4.2523   -1.1474 O.2       1 <0>        -0.9640
     25 N4          0.3191    4.3216    1.3225 N.pl3     1 <0>        -1.2503
     26 O4          1.0855  -12.5380   -0.4312 O.3       1 <0>        -0.3077
     27 C17         2.2197  -13.0039   -1.1651 C.3       1 <0>         0.6037
     28 F1          3.3840  -12.4421   -0.6303 F         1 <0>        -0.1633
     29 F2          2.2916  -14.3982   -1.0769 F         1 <0>        -0.1278
     30 F3          2.0939  -12.6273   -2.5066 F         1 <0>        -0.1636
     31 H1          2.1791   -8.3230   -1.6136 H         1 <0>         0.1403
     32 H2          2.5755  -10.7518   -1.6321 H         1 <0>         0.1431
     33 H3         -0.8849  -11.3376    0.8056 H         1 <0>         0.1510
     34 H4         -1.2768   -8.9083    0.8357 H         1 <0>         0.1487
     35 H5         -0.6994   -6.7343   -0.3696 H         1 <0>         0.4307
     36 H6          4.6242   -4.4966   -0.3602 H         1 <0>         0.2120
     37 H7          0.4024   -2.5726   -0.0090 H         1 <0>         0.4248
     38 H8         -0.6198   -0.5402   -1.1640 H         1 <0>         0.1389
     39 H9         -0.6493    1.9207   -1.1518 H         1 <0>         0.1485
     40 H10         2.9980    1.9630    1.0595 H         1 <0>         0.1480
     41 H11         3.0395   -0.4977    1.0488 H         1 <0>         0.1507
     42 H12        -0.0392    3.6538    1.9279 H         1 <0>         0.4166
     43 H13         0.1938    5.2647    1.5116 H         1 <0>         0.4211
@<TRIPOS>BOND
     1    1    6 ar
     2    1    2 ar
     3    1   31 1
     4    2    3 ar
     5    2   32 1
     6    3    4 ar
     7    3   26 1
     8    4    5 ar
     9    4   33 1
    10    5    6 ar
    11    5   34 1
    12    6    7 1
    13    7    8 1
    14    7   35 1
    15    8   12 1
    16    8    9 2
    17    9   10 1
    18   10   11 2
    19   10   13 1
    20   11   12 1
    21   11   36 1
    22   13   14 2
    23   13   15 am
    24   15   16 1
    25   15   37 1
    26   16   21 ar
    27   16   17 ar
    28   17   18 ar
    29   17   38 1
    30   18   19 ar
    31   18   39 1
    32   19   20 ar
    33   19   22 1
    34   20   21 ar
    35   20   40 1
    36   21   41 1
    37   22   23 2
    38   22   24 2
    39   22   25 1
    40   25   42 1
    41   25   43 1
    42   26   27 1
    43   27   28 1
    44   27   29 1
    45   27   30 1
