@<TRIPOS>MOLECULE
ZINC48661295
   52    53     0     0     0
SMALL
USER_CHARGES

@<TRIPOS>ATOM
      1 C1         -0.3032    1.8687   -1.5941 C.3       1 <0>         0.0703
      2 N1         -0.0168    0.7047   -0.7518 N.pl3     1 <0>        -0.8718
      3 O1          0.2394    0.8767    0.6301 O.3       1 <0>        -0.1181
      4 C2         -0.9295    0.8165    1.4499 C.3       1 <0>        -0.0169
      5 S1          0.0072   -0.8121   -1.4159 S.o2      1 <0>         2.7011
      6 O2         -0.3692   -1.7134   -0.3838 O.2       1 <0>        -0.9419
      7 O3         -0.6967   -0.7274   -2.6475 O.2       1 <0>        -0.9381
      8 C3          1.6832   -1.1784   -1.8179 C.ar      1 <0>        -0.6871
      9 C4          2.1834   -0.8421   -3.0626 C.ar      1 <0>         0.0029
     10 C5          3.4964   -1.1277   -3.3809 C.ar      1 <0>        -0.1608
     11 C6          4.3153   -1.7531   -2.4490 C.ar      1 <0>         0.2020
     12 C7          3.8096   -2.0891   -1.1993 C.ar      1 <0>        -0.1427
     13 C8          2.4969   -1.7962   -0.8859 C.ar      1 <0>         0.0103
     14 N2          5.6442   -2.0439   -2.7679 N.am      1 <0>        -0.6482
     15 C9          6.2325   -3.1466   -2.2634 C.2       1 <0>         0.5104
     16 O4          5.5821   -3.9368   -1.6109 O.2       1 <0>        -0.4887
     17 C10         7.6847   -3.3962   -2.5072 C.2       1 <0>         0.5107
     18 O5          8.3350   -2.6061   -3.1597 O.2       1 <0>        -0.5113
     19 N3          8.2729   -4.4988   -2.0027 N.am      1 <0>        -0.6964
     20 C11         9.6974   -4.7437   -2.2419 C.3       1 <0>         0.1218
     21 C12        10.1105   -6.0525   -1.5657 C.3       1 <0>        -0.1001
     22 C13        11.5758   -6.3043   -1.8118 C.2       1 <0>        -0.1238
     23 C14        12.4178   -5.9225   -0.9058 C.2       1 <0>        -0.1433
     24 C15        13.9046   -6.0947   -1.0137 C.3       1 <0>        -0.0925
     25 C16        14.2386   -7.1293   -2.0906 C.3       1 <0>        -0.1223
     26 C17        13.4595   -6.7738   -3.3631 C.3       1 <0>        -0.1211
     27 C18        11.9676   -6.9875   -3.0892 C.3       1 <0>        -0.0841
     28 H1          0.6287    2.2602   -2.0018 H         1 <0>         0.0669
     29 H2         -0.9613    1.5728   -2.4111 H         1 <0>         0.0956
     30 H3         -0.7902    2.6389   -0.9960 H         1 <0>         0.0860
     31 H4         -1.6235    1.6021    1.1513 H         1 <0>         0.0567
     32 H5         -1.4077   -0.1556    1.3300 H         1 <0>         0.0651
     33 H6         -0.6488    0.9571    2.4938 H         1 <0>         0.1117
     34 H7          1.5463   -0.3560   -3.7866 H         1 <0>         0.1482
     35 H8          3.8863   -0.8655   -4.3534 H         1 <0>         0.1420
     36 H9          4.4434   -2.5753   -0.4725 H         1 <0>         0.1460
     37 H10         2.1042   -2.0537    0.0866 H         1 <0>         0.1478
     38 H11         6.1434   -1.4523   -3.3524 H         1 <0>         0.4283
     39 H12         7.7532   -5.1304   -1.4813 H         1 <0>         0.4150
     40 H13         9.8786   -4.8158   -3.3143 H         1 <0>         0.0778
     41 H14        10.2817   -3.9212   -1.8292 H         1 <0>         0.0774
     42 H15         9.9293   -5.9803   -0.4933 H         1 <0>         0.0778
     43 H16         9.5262   -6.8749   -1.9784 H         1 <0>         0.0794
     44 H17        12.0259   -5.4502   -0.0171 H         1 <0>         0.1039
     45 H18        14.3609   -5.1402   -1.2758 H         1 <0>         0.0747
     46 H19        14.3000   -6.4306   -0.0550 H         1 <0>         0.0722
     47 H20        15.3084   -7.1096   -2.2984 H         1 <0>         0.0656
     48 H21        13.9471   -8.1221   -1.7478 H         1 <0>         0.0644
     49 H22        13.6418   -5.7316   -3.6253 H         1 <0>         0.0654
     50 H23        13.7773   -7.4213   -4.1803 H         1 <0>         0.0663
     51 H24        11.7610   -8.0545   -3.0063 H         1 <0>         0.0744
     52 H25        11.3878   -6.5722   -3.9135 H         1 <0>         0.0710
@<TRIPOS>BOND
     1    1    2 1
     2    1   28 1
     3    1   29 1
     4    1   30 1
     5    2    3 1
     6    2    5 1
     7    3    4 1
     8    4   31 1
     9    4   32 1
    10    4   33 1
    11    5    6 2
    12    5    7 2
    13    5    8 1
    14    8   13 ar
    15    8    9 ar
    16    9   10 ar
    17    9   34 1
    18   10   11 ar
    19   10   35 1
    20   11   12 ar
    21   11   14 1
    22   12   13 ar
    23   12   36 1
    24   13   37 1
    25   14   15 am
    26   14   38 1
    27   15   16 2
    28   15   17 1
    29   17   18 2
    30   17   19 am
    31   19   20 1
    32   19   39 1
    33   20   21 1
    34   20   40 1
    35   20   41 1
    36   21   22 1
    37   21   42 1
    38   21   43 1
    39   22   27 1
    40   22   23 2
    41   23   24 1
    42   23   44 1
    43   24   25 1
    44   24   45 1
    45   24   46 1
    46   25   26 1
    47   25   47 1
    48   25   48 1
    49   26   27 1
    50   26   49 1
    51   26   50 1
    52   27   51 1
    53   27   52 1
