@<TRIPOS>MOLECULE
ZINC39581620
   45    49     0     0     0
SMALL
USER_CHARGES

@<TRIPOS>ATOM
      1 C1         -0.0167    1.3787    0.0096 C.ar      1 <0>        -0.0820
      2 C2          1.1654    2.0894    0.0022 C.ar      1 <0>        -0.0952
      3 C3          2.3878    1.4104   -0.0132 C.ar      1 <0>        -0.1446
      4 C4          2.4039    0.0125   -0.0209 C.ar      1 <0>        -0.0785
      5 C5          1.2107   -0.6883   -0.0132 C.ar      1 <0>         0.1166
      6 C6          0.0021   -0.0041    0.0020 C.ar      1 <0>        -0.1367
      7 O1          1.2214   -2.0474   -0.0207 O.3       1 <0>        -0.4993
      8 C7          3.6520    2.1642   -0.0217 C.2       1 <0>         0.3774
      9 O2          4.7104    1.5728   -0.0350 O.2       1 <0>        -0.3946
     10 C8          3.6308    3.6710   -0.0139 C.3       1 <0>        -0.0347
     11 H1          2.7309    4.0244   -0.5172 H         1 <0>         0.1476
     12 C9          4.8471    4.1942   -0.7335 C.2       1 <0>         0.0775
     13 C10         5.0000    5.5819   -0.9451 C.2       1 <0>         0.4279
     14 O3          4.0481    6.4353   -0.4970 O.3       1 <0>        -0.6632
     15 N1          6.0548    6.0569   -1.5712 N.2       1 <0>        -0.5427
     16 C11         7.0072    5.2308   -2.0215 C.2       1 <0>         0.3886
     17 N2          8.1437    5.4174   -2.6668 N.2       1 <0>        -0.3093
     18 N3          8.7146    4.2841   -2.8786 N.2       1 <0>        -0.3149
     19 C12         7.9876    3.3075   -2.3873 C.2       1 <0>         0.4335
     20 N4          6.8810    3.8693   -1.8271 N.pl3     1 <0>        -0.3946
     21 N5          5.7636    3.3638   -1.1574 N.2       1 <0>        -0.1790
     22 N6          8.2917    1.9491   -2.4311 N.pl3     1 <0>        -0.8342
     23 C13         3.6377    4.1737    1.4312 C.3       1 <0>         0.0776
     24 H2          3.6223    5.2636    1.4286 H         1 <0>         0.1855
     25 C14         4.8949    3.7021    2.1090 C.2       1 <0>         0.4954
     26 O4          5.8661    4.4274    2.1511 O.2       1 <0>        -0.4674
     27 N7          4.9480    2.4696    2.6739 N.am      1 <0>        -0.6229
     28 C15         3.7529    1.7476    2.6795 C.2       1 <0>         0.4158
     29 N8          3.5357    0.4907    2.9165 N.2       1 <0>        -0.2848
     30 N9          2.1551    0.2633    2.7947 N.2       1 <0>        -0.3592
     31 C16         1.5806    1.4043    2.4850 C.2       1 <0>         0.5362
     32 N10         2.5482    2.3516    2.4057 N.pl3     1 <0>        -0.3895
     33 N11         2.4374    3.6793    2.1161 N.3       1 <0>        -0.4257
     34 N12         0.2233    1.6045    2.2760 N.pl3     1 <0>        -0.8189
     35 H3         -0.9602    1.9039    0.0260 H         1 <0>         0.1319
     36 H4          1.1470    3.1692    0.0078 H         1 <0>         0.1397
     37 H5          3.3442   -0.5186   -0.0331 H         1 <0>         0.1309
     38 H6         -0.9272   -0.5544    0.0080 H         1 <0>         0.1289
     39 H7          1.2330   -2.4454    0.8605 H         1 <0>         0.3931
     40 H8          9.1105    1.6488   -2.8558 H         1 <0>         0.4151
     41 H9          7.6848    1.3032   -2.0369 H         1 <0>         0.4075
     42 H10         5.7667    2.1118    3.0515 H         1 <0>         0.4350
     43 H11         2.2494    4.2165    2.9492 H         1 <0>         0.3708
     44 H12        -0.3945    0.8610    2.3560 H         1 <0>         0.4230
     45 H13        -0.1075    2.4879    2.0499 H         1 <0>         0.4166
@<TRIPOS>BOND
     1    1    6 ar
     2    1    2 ar
     3    1   35 1
     4    2    3 ar
     5    2   36 1
     6    3    4 ar
     7    3    8 1
     8    4    5 ar
     9    4   37 1
    10    5    6 ar
    11    5    7 1
    12    6   38 1
    13    7   39 1
    14    8    9 2
    15    8   10 1
    16   10   11 1
    17   10   12 1
    18   10   23 1
    19   12   21 2
    20   12   13 1
    21   13   14 1
    22   13   15 2
    23   15   16 1
    24   16   20 1
    25   16   17 2
    26   17   18 1
    27   18   19 2
    28   19   20 1
    29   19   22 1
    30   20   21 1
    31   22   40 1
    32   22   41 1
    33   23   24 1
    34   23   33 1
    35   23   25 1
    36   25   26 2
    37   25   27 am
    38   27   28 1
    39   27   42 1
    40   28   32 1
    41   28   29 2
    42   29   30 1
    43   30   31 2
    44   31   32 1
    45   31   34 1
    46   32   33 1
    47   33   43 1
    48   34   44 1
    49   34   45 1
