@<TRIPOS>MOLECULE
ZINC66983856
   46    48     0     0     0
SMALL
USER_CHARGES

@<TRIPOS>ATOM
      1 C1         -0.4885    0.3784    0.1724 C.3       1 <0>        -0.1620
      2 C2          0.1382   -0.9884    0.4555 C.3       1 <0>         0.1415
      3 H1          0.8508   -0.8985    1.2754 H         1 <0>         0.1053
      4 C3         -0.9591   -1.9828    0.8402 C.3       1 <0>         0.0657
      5 O1         -1.9546   -2.0137   -0.1845 O.3       1 <0>        -0.5697
      6 N1          0.8312   -1.4657   -0.7437 N.am      1 <0>        -0.6876
      7 C4          2.0989   -1.0791   -0.9883 C.2       1 <0>         0.5113
      8 O2          2.6664   -0.3355   -0.2150 O.2       1 <0>        -0.5164
      9 C5          2.8053   -1.5656   -2.2107 C.2       1 <0>         0.5087
     10 O3          2.2377   -2.3093   -2.9841 O.2       1 <0>        -0.4926
     11 N2          4.0731   -1.1790   -2.4553 N.am      1 <0>        -0.6443
     12 C6          4.7658   -1.7076   -3.5452 C.ar      1 <0>         0.1521
     13 C7          4.0899   -1.9858   -4.7285 C.ar      1 <0>        -0.1143
     14 C8          4.7712   -2.5078   -5.8062 C.ar      1 <0>        -0.0535
     15 C9          6.1414   -2.7573   -5.7097 C.ar      1 <0>        -0.0266
     16 C10         6.8173   -2.4771   -4.5207 C.ar      1 <0>        -0.0934
     17 C11         6.1319   -1.9499   -3.4481 C.ar      1 <0>        -0.1333
     18 C12         6.8753   -3.3179   -6.8644 C.2       1 <0>         0.2213
     19 N3          6.4713   -3.3375   -8.1190 N.2       1 <0>        -0.2801
     20 N4          7.3644   -3.9027   -8.8562 N.2       1 <0>        -0.2866
     21 C13         8.3736   -4.2695   -8.1251 C.2       1 <0>         0.1843
     22 N5          8.1007   -3.9078   -6.8388 N.pl3     1 <0>        -0.4715
     23 C14         8.9873   -4.1399   -5.6996 C.3       1 <0>         0.0981
     24 C15        10.0292   -5.1932   -6.0943 C.3       1 <0>        -0.1377
     25 C16        10.6755   -4.8029   -7.4265 C.3       1 <0>        -0.1273
     26 C17         9.6429   -4.9624   -8.5536 C.3       1 <0>        -0.0353
     27 H2          0.2932    1.0868   -0.1017 H         1 <0>         0.0609
     28 H3         -1.2012    0.2885   -0.6475 H         1 <0>         0.0706
     29 H4         -1.0041    0.7335    1.0646 H         1 <0>         0.0696
     30 H5         -0.5252   -2.9760    0.9554 H         1 <0>         0.0558
     31 H6         -1.4154   -1.6743    1.7809 H         1 <0>         0.0678
     32 H7         -2.6830   -2.6244   -0.0070 H         1 <0>         0.3863
     33 H8          0.3776   -2.0600   -1.3618 H         1 <0>         0.4188
     34 H9          4.5040   -0.5334   -1.8736 H         1 <0>         0.4254
     35 H10         3.0298   -1.7929   -4.8024 H         1 <0>         0.1481
     36 H11         4.2458   -2.7240   -6.7247 H         1 <0>         0.1434
     37 H12         7.8772   -2.6694   -4.4432 H         1 <0>         0.1310
     38 H13         6.6551   -1.7288   -2.5295 H         1 <0>         0.1366
     39 H14         9.4900   -3.2104   -5.4323 H         1 <0>         0.0929
     40 H15         8.4057   -4.5007   -4.8512 H         1 <0>         0.0993
     41 H16        10.7964   -5.2519   -5.3222 H         1 <0>         0.0957
     42 H17         9.5434   -6.1636   -6.1971 H         1 <0>         0.0791
     43 H18        11.0116   -3.7672   -7.3780 H         1 <0>         0.0733
     44 H19        11.5280   -5.4535   -7.6216 H         1 <0>         0.0888
     45 H20         9.4424   -6.0181   -8.7359 H         1 <0>         0.0983
     46 H21        10.0273   -4.4978   -9.4616 H         1 <0>         0.1023
@<TRIPOS>BOND
     1    1    2 1
     2    1   27 1
     3    1   28 1
     4    1   29 1
     5    2    3 1
     6    2    4 1
     7    2    6 1
     8    4    5 1
     9    4   30 1
    10    4   31 1
    11    5   32 1
    12    6    7 am
    13    6   33 1
    14    7    8 2
    15    7    9 1
    16    9   10 2
    17    9   11 am
    18   11   12 1
    19   11   34 1
    20   12   17 ar
    21   12   13 ar
    22   13   14 ar
    23   13   35 1
    24   14   15 ar
    25   14   36 1
    26   15   16 ar
    27   15   18 1
    28   16   17 ar
    29   16   37 1
    30   17   38 1
    31   18   22 1
    32   18   19 2
    33   19   20 1
    34   20   21 2
    35   21   26 1
    36   21   22 1
    37   22   23 1
    38   23   24 1
    39   23   39 1
    40   23   40 1
    41   24   25 1
    42   24   41 1
    43   24   42 1
    44   25   26 1
    45   25   43 1
    46   25   44 1
    47   26   45 1
    48   26   46 1
