@<TRIPOS>MOLECULE
ZINC14094193
   50    53     0     0     0
SMALL
USER_CHARGES

@<TRIPOS>ATOM
      1 C1          1.2042    1.7711    0.6122 C.ar      1 <0>         0.0368
      2 C2         -0.0841    2.2770    0.7269 C.ar      1 <0>        -0.1739
      3 C3         -1.1548    1.4061    0.7292 C.ar      1 <0>         0.1459
      4 N1         -0.9683    0.1039    0.6239 N.ar      1 <0>        -0.5093
      5 C4          0.2439   -0.4171    0.5132 C.ar      1 <0>         0.4451
      6 C5          1.3684    0.4022    0.5035 C.ar      1 <0>        -0.2017
      7 N2          0.3943   -1.7947    0.4052 N.pl3     1 <0>        -0.5859
      8 C6          1.7118   -2.3916    0.1387 C.3       1 <0>         0.1152
      9 C7          1.9701   -3.4859    1.1799 C.3       1 <0>         0.0352
     10 N3          0.8473   -4.4332    1.1788 N.3       1 <0>        -0.5268
     11 C8         -0.4043   -3.7765    1.5791 C.3       1 <0>         0.0342
     12 C9         -0.7588   -2.6945    0.5603 C.3       1 <0>         0.1052
     13 C10         1.1333   -5.5896    2.0384 C.3       1 <0>         0.0293
     14 C11         0.0809   -6.6468    1.8247 C.2       1 <0>         0.4454
     15 O1         -0.8202   -6.4555    1.0331 O.2       1 <0>        -0.5028
     16 C12         0.1423   -7.8592    2.5444 C.2       1 <0>        -0.4660
     17 C13        -0.7602   -8.9047    2.2827 C.2       1 <0>         0.5693
     18 N4         -0.6608  -10.0594    3.0052 N.am      1 <0>        -0.5169
     19 C14         0.2767  -10.2104    3.9537 C.2       1 <0>         0.7135
     20 O2          0.3235  -11.2576    4.5689 O.2       1 <0>        -0.5102
     21 N5          1.1652   -9.2474    4.2476 N.am      1 <0>        -0.6604
     22 H1          1.8256   -9.4008    4.9413 H         1 <0>         0.4371
     23 C15         1.1550   -8.0714    3.5866 C.2       1 <0>         0.5831
     24 O3          1.9651   -7.2025    3.8519 O.2       1 <0>        -0.5133
     25 C16        -1.5967  -11.1549    2.7400 C.3       1 <0>         0.0240
     26 C17        -1.0138  -12.5618    2.5923 C.3       1 <0>        -0.1303
     27 C18        -1.5367  -11.8173    1.3622 C.3       1 <0>        -0.1806
     28 N6         -1.7174   -8.7683    1.3255 N.pl3     1 <0>        -0.7849
     29 H2          2.0583    2.4320    0.6035 H         1 <0>         0.1734
     30 H3         -0.2464    3.3412    0.8139 H         1 <0>         0.1794
     31 H4         -2.1583    1.7953    0.8185 H         1 <0>         0.2048
     32 H5          2.3561   -0.0251    0.4127 H         1 <0>         0.1782
     33 H6          1.7211   -2.8274   -0.8604 H         1 <0>         0.1047
     34 H7          2.4831   -1.6251    0.2141 H         1 <0>         0.1043
     35 H8          2.8912   -4.0134    0.9324 H         1 <0>         0.1073
     36 H9          2.0635   -3.0337    2.1673 H         1 <0>         0.0490
     37 H10        -1.2051   -4.5148    1.6211 H         1 <0>         0.1182
     38 H11        -0.2778   -3.3203    2.5609 H         1 <0>         0.0405
     39 H12        -1.6201   -2.1281    0.9144 H         1 <0>         0.0787
     40 H13        -0.9915   -3.1599   -0.3974 H         1 <0>         0.1090
     41 H14         2.1129   -5.9960    1.7866 H         1 <0>         0.1177
     42 H15         1.1272   -5.2766    3.0825 H         1 <0>         0.0828
     43 H16        -2.5750  -11.0620    3.2116 H         1 <0>         0.1460
     44 H17         0.0659  -12.6723    2.6925 H         1 <0>         0.1116
     45 H18        -1.6086  -13.3948    2.9669 H         1 <0>         0.1209
     46 H19        -2.4755  -12.1606    0.9275 H         1 <0>         0.1234
     47 H20        -0.8009  -11.4380    0.6530 H         1 <0>         0.1055
     48 H21        -1.7031   -8.0019    0.7311 H         1 <0>         0.4392
     49 H22        -2.4140   -9.4375    1.2374 H         1 <0>         0.4112
     50 H23        -1.7382   -0.4862    0.6282 H         1 <0>         0.4378
@<TRIPOS>BOND
     1    1    6 ar
     2    1    2 ar
     3    1   29 1
     4    2    3 ar
     5    2   30 1
     6    3    4 ar
     7    3   31 1
     8    4    5 ar
     9    4   50 1
    10    5    6 ar
    11    5    7 1
    12    6   32 1
    13    7   12 1
    14    7    8 1
    15    8    9 1
    16    8   33 1
    17    8   34 1
    18    9   10 1
    19    9   35 1
    20    9   36 1
    21   10   11 1
    22   10   13 1
    23   11   12 1
    24   11   37 1
    25   11   38 1
    26   12   39 1
    27   12   40 1
    28   13   14 1
    29   13   41 1
    30   13   42 1
    31   14   15 2
    32   14   16 1
    33   16   23 1
    34   16   17 2
    35   17   18 1
    36   17   28 1
    37   18   19 am
    38   18   25 1
    39   19   20 2
    40   19   21 am
    41   21   22 1
    42   21   23 am
    43   23   24 2
    44   25   27 1
    45   25   26 1
    46   25   43 1
    47   26   27 1
    48   26   44 1
    49   26   45 1
    50   27   46 1
    51   27   47 1
    52   28   48 1
    53   28   49 1
