@<TRIPOS>MOLECULE
ZINC63533183
   39    41     0     0     0
SMALL
USER_CHARGES

@<TRIPOS>ATOM
      1 C1         -0.0166    1.3765    0.0096 C.ar      1 <0>        -0.0819
      2 C2          1.1657    2.0938    0.0022 C.ar      1 <0>        -0.1258
      3 C3          2.3766    1.4260   -0.0083 C.ar      1 <0>        -0.0569
      4 C4          2.4008    0.0412   -0.0145 C.ar      1 <0>        -0.1440
      5 C5          1.2131   -0.6895   -0.0146 C.ar      1 <0>         0.1560
      6 C6          0.0021   -0.0041    0.0020 C.ar      1 <0>        -0.1402
      7 N1          1.2051   -2.0808   -0.0439 N.am      1 <0>        -0.6527
      8 C7          2.2206   -2.8734   -0.3704 C.2       1 <0>         0.5282
      9 O1          2.0829   -4.0713   -0.2383 O.2       1 <0>        -0.5056
     10 C8          3.5343   -2.3571   -0.8971 C.3       1 <0>        -0.0818
     11 S1          3.9432   -0.8187   -0.0170 S.3       1 <0>        -0.0453
     12 C9          3.4123   -2.0752   -2.3959 C.3       1 <0>        -0.1314
     13 C10         4.7586   -1.6767   -2.9433 C.2       1 <0>         0.5265
     14 O2          5.7210   -1.6233   -2.2071 O.2       1 <0>        -0.5186
     15 N2          4.8933   -1.3795   -4.2510 N.am      1 <0>        -0.7183
     16 C11         6.2021   -0.9921   -4.7831 C.3       1 <0>         0.1056
     17 C12         6.0820   -0.7145   -6.2595 C.2       1 <0>         0.5118
     18 O3          5.0086   -0.8290   -6.8128 O.2       1 <0>        -0.5243
     19 N3          7.1671   -0.3390   -6.9650 N.am      1 <0>        -0.6366
     20 C13         7.0549   -0.0797   -8.3440 C.2       1 <0>        -0.0066
     21 C14         8.0628    0.2987   -9.1710 C.2       1 <0>         0.0295
     22 N4          7.5389    0.4451  -10.4154 N.pl3     1 <0>        -0.4721
     23 H1          8.0251    0.7091  -11.2121 H         1 <0>         0.4463
     24 N5          6.1720    0.1473  -10.3446 N.2       1 <0>        -0.2805
     25 C15         5.8831   -0.1721   -9.1092 C.2       1 <0>         0.0556
     26 H2         -0.9612    1.8998    0.0260 H         1 <0>         0.1338
     27 H3          1.1434    3.1736    0.0042 H         1 <0>         0.1343
     28 H4          3.3017    1.9833   -0.0113 H         1 <0>         0.1371
     29 H5         -0.9272   -0.5544    0.0094 H         1 <0>         0.1334
     30 H6          0.3733   -2.5167    0.1992 H         1 <0>         0.4149
     31 H7          4.3152   -3.0973   -0.7228 H         1 <0>         0.1603
     32 H8          3.0634   -2.9724   -2.9071 H         1 <0>         0.1155
     33 H9          2.7006   -1.2654   -2.5566 H         1 <0>         0.1046
     34 H10         4.1237   -1.4222   -4.8398 H         1 <0>         0.4139
     35 H11         6.5511   -0.0949   -4.2719 H         1 <0>         0.1062
     36 H12         6.9138   -1.8019   -4.6225 H         1 <0>         0.1052
     37 H13         8.0255   -0.2474   -6.5226 H         1 <0>         0.4151
     38 H14         9.0939    0.4554   -8.8902 H         1 <0>         0.1824
     39 H15         4.9082   -0.4554   -8.7409 H         1 <0>         0.2065
@<TRIPOS>BOND
     1    1    6 ar
     2    1    2 ar
     3    1   26 1
     4    2    3 ar
     5    2   27 1
     6    3    4 ar
     7    3   28 1
     8    4   11 1
     9    4    5 ar
    10    5    6 ar
    11    5    7 1
    12    6   29 1
    13    7    8 am
    14    7   30 1
    15    8    9 2
    16    8   10 1
    17   10   11 1
    18   10   12 1
    19   10   31 1
    20   12   13 1
    21   12   32 1
    22   12   33 1
    23   13   14 2
    24   13   15 am
    25   15   16 1
    26   15   34 1
    27   16   17 1
    28   16   35 1
    29   16   36 1
    30   17   18 2
    31   17   19 am
    32   19   20 1
    33   19   37 1
    34   20   25 1
    35   20   21 2
    36   21   22 1
    37   21   38 1
    38   22   23 1
    39   22   24 1
    40   24   25 2
    41   25   39 1
