@<TRIPOS>MOLECULE
ZINC27788875
   34    37     0     0     0
SMALL
USER_CHARGES
10-(4-chlorobenzoyl)-1H-pyrimido[5,6-a]indolizine-2,4-dione
@<TRIPOS>ATOM
      1 C1         -4.5396    0.1549    0.0273 C.2       1 <0>        -0.0812
      2 C2         -5.3135    1.3211    0.0385 C.2       1 <0>        -0.1282
      3 C3         -4.7144    2.5347    0.0462 C.2       1 <0>         0.0587
      4 N1         -3.3574    2.6433    0.0433 N.pl3     1 <0>        -0.2852
      5 C4         -2.5792    1.5212    0.0325 C.2       1 <0>         0.1831
      6 C5         -3.1771    0.2548    0.0243 C.2       1 <0>        -0.0963
      7 C6         -1.2273    1.9246    0.0254 C.2       1 <0>        -0.3062
      8 C7         -1.2119    3.3350    0.0427 C.2       1 <0>         0.2271
      9 C8         -2.5340    3.7608    0.0496 C.2       1 <0>        -0.1585
     10 C9         -2.9668    5.1021    0.0605 C.2       1 <0>         0.4785
     11 O1         -3.2347    5.6477    1.1174 O.2       1 <0>        -0.4172
     12 C10        -3.0962    5.8480   -1.2107 C.ar      1 <0>        -0.1692
     13 C11        -2.8938    5.1970   -2.4286 C.ar      1 <0>        -0.0491
     14 C12        -3.0203    5.8963   -3.6105 C.ar      1 <0>        -0.1223
     15 C13        -3.3373    7.2445   -3.5901 C.ar      1 <0>         0.0000
     16 C14        -3.5341    7.8970   -2.3843 C.ar      1 <0>        -0.1220
     17 C15        -3.4154    7.2068   -1.1963 C.ar      1 <0>        -0.0436
     18 Cl1        -3.4890    8.1197   -5.0816 Cl        1 <0>        -0.0537
     19 N2          0.0094    3.9886    0.0447 N.am      1 <0>        -0.6424
     20 H1          0.0448    5.0880    0.0526 H         1 <0>         0.4613
     21 C16         1.1536    3.2793    0.0370 C.2       1 <0>         0.7201
     22 O2          2.2149    3.8723    0.0393 O.2       1 <0>        -0.5435
     23 N3          1.1578    1.9362    0.0271 N.am      1 <0>        -0.6759
     24 H2          2.1121    1.3892    0.0213 H         1 <0>         0.4650
     25 C17         0.0084    1.2306    0.0240 C.2       1 <0>         0.5985
     26 O3          0.0320    0.0133    0.0151 O.2       1 <0>        -0.5163
     27 H3         -5.0150   -0.8148    0.0215 H         1 <0>         0.1514
     28 H4         -6.3913    1.2524    0.0410 H         1 <0>         0.1618
     29 H5         -5.3207    3.4284    0.0552 H         1 <0>         0.1705
     30 H6         -2.5661   -0.6356    0.0161 H         1 <0>         0.1633
     31 H7         -2.6422    4.1469   -2.4456 H         1 <0>         0.1375
     32 H8         -2.8683    5.3927   -4.5537 H         1 <0>         0.1426
     33 H9         -3.7814    8.9482   -2.3744 H         1 <0>         0.1444
     34 H10        -3.5694    7.7165   -0.2567 H         1 <0>         0.1467
@<TRIPOS>BOND
     1    1    6 2
     2    1    2 1
     3    1   27 1
     4    2    3 2
     5    2   28 1
     6    3    4 1
     7    3   29 1
     8    4    9 1
     9    4    5 1
    10    5    6 1
    11    5    7 2
    12    6   30 1
    13    7   25 1
    14    7    8 1
    15    8    9 2
    16    8   19 1
    17    9   10 1
    18   10   11 2
    19   10   12 1
    20   12   17 ar
    21   12   13 ar
    22   13   14 ar
    23   13   31 1
    24   14   15 ar
    25   14   32 1
    26   15   16 ar
    27   15   18 1
    28   16   17 ar
    29   16   33 1
    30   17   34 1
    31   19   20 1
    32   19   21 am
    33   21   22 2
    34   21   23 am
    35   23   24 1
    36   23   25 am
    37   25   26 2
