@<TRIPOS>MOLECULE
ZINC20355052
   66    69     0     0     0
SMALL
USER_CHARGES
1-[5-[(E)-2-dimethylaminovinyl]-3-methyl-isoxazol-4-yl]sulfonyl-N-[(1S)-tetralin-1-yl]piperidine-4-carboxamide
@<TRIPOS>ATOM
      1 C1          1.6038   -1.9386    0.0399 C.3       1 <0>        -0.1190
      2 C2          1.2119   -0.4834    0.0359 C.2       1 <0>         0.1198
      3 C3          2.0836    0.6207    0.0381 C.2       1 <0>        -0.7112
      4 C4          1.2310    1.7120    0.0321 C.2       1 <0>         0.0538
      5 O1         -0.0163    1.2042    0.0270 O.3       1 <0>         0.1416
      6 N1         -0.0009   -0.0042    0.0292 N.2       1 <0>        -0.3221
      7 C5          1.6084    3.1279    0.0310 C.2       1 <0>        -0.0214
      8 C6          0.6576    4.0762    0.0248 C.2       1 <0>        -0.1331
      9 N2          1.0089    5.4045    0.1247 N.4       1 <0>        -0.5790
     10 C7          2.4219    5.7913    0.1130 C.3       1 <0>         0.0330
     11 C8         -0.0304    6.4302    0.2425 C.3       1 <0>         0.0541
     12 S1          3.8455    0.6162    0.0461 S.o2      1 <0>         2.7105
     13 O2          4.2524    1.8616    0.5963 O.2       1 <0>        -0.9448
     14 O3          4.2460   -0.6291    0.6012 O.2       1 <0>        -0.9182
     15 N3          4.3423    0.6118   -1.5336 N.pl3     1 <0>        -0.9883
     16 C9          4.5695   -0.6544   -2.2434 C.3       1 <0>         0.1136
     17 C10         3.7483   -0.6409   -3.5417 C.3       1 <0>        -0.1294
     18 C11         4.1068    0.6067   -4.3523 C.3       1 <0>        -0.1066
     19 C12         3.7543    1.8593   -3.5467 C.3       1 <0>        -0.1174
     20 C13         4.5701    1.8741   -2.2502 C.3       1 <0>         0.1145
     21 C14         3.3312    0.6060   -5.6443 C.2       1 <0>         0.5177
     22 O4          2.5715    1.5172   -5.8961 O.2       1 <0>        -0.5406
     23 N4          3.4818   -0.4073   -6.5201 N.am      1 <0>        -0.7306
     24 C15         2.7278   -0.4081   -7.7762 C.3       1 <0>         0.1893
     25 H1          2.6205    0.6332   -8.1142 H         1 <0>         0.0978
     26 C16         3.4855   -1.2288   -8.8180 C.3       1 <0>        -0.1249
     27 C17         2.5851   -1.3989  -10.0473 C.3       1 <0>        -0.1174
     28 C18         1.4359   -2.3343   -9.6769 C.3       1 <0>        -0.0865
     29 C19         0.7656   -1.8735   -8.4091 C.ar      1 <0>        -0.0649
     30 C20         1.3608   -0.9926   -7.5346 C.ar      1 <0>        -0.0966
     31 C21         0.6903   -0.6118   -6.3790 C.ar      1 <0>        -0.1088
     32 C22        -0.5671   -1.1078   -6.1024 C.ar      1 <0>        -0.1320
     33 C23        -1.1657   -1.9900   -6.9821 C.ar      1 <0>        -0.1126
     34 C24        -0.5008   -2.3702   -8.1298 C.ar      1 <0>        -0.1240
     35 H2          2.7005   -2.0229    0.0455 H         1 <0>         0.1122
     36 H3          1.2029   -2.4287   -0.8596 H         1 <0>         0.1016
     37 H4          1.1940   -2.4262    0.9367 H         1 <0>         0.1054
     38 H5          2.6705    3.4140    0.0353 H         1 <0>         0.2183
     39 H6         -0.4018    3.7924   -0.0600 H         1 <0>         0.3066
     40 H7          2.5035    6.8847    0.2017 H         1 <0>         0.1480
     41 H8          2.8837    5.4645   -0.8304 H         1 <0>         0.1018
     42 H9          2.9394    5.3152    0.9589 H         1 <0>         0.1054
     43 H10         0.4397    7.4224    0.3107 H         1 <0>         0.1466
     44 H11        -0.6279    6.2446    1.1473 H         1 <0>         0.1015
     45 H12        -0.6834    6.3938   -0.6420 H         1 <0>         0.1009
     46 H13         5.6394   -0.7566   -2.4775 H         1 <0>         0.0953
     47 H14         4.2515   -1.4936   -1.6072 H         1 <0>         0.1015
     48 H15         3.9779   -1.5415   -4.1301 H         1 <0>         0.0910
     49 H16         2.6759   -0.6262   -3.2972 H         1 <0>         0.0728
     50 H17         5.1815    0.6036   -4.5867 H         1 <0>         0.1091
     51 H18         3.9898    2.7551   -4.1400 H         1 <0>         0.0923
     52 H19         2.6810    1.8506   -3.3061 H         1 <0>         0.0701
     53 H20         4.2517    2.7167   -1.6189 H         1 <0>         0.0861
     54 H21         5.6402    1.9750   -2.4841 H         1 <0>         0.0947
     55 H22         4.1709   -1.2337   -6.2917 H         1 <0>         0.4228
     56 H23         4.4098   -0.7022   -9.0981 H         1 <0>         0.0768
     57 H24         3.7376   -2.2132   -8.3968 H         1 <0>         0.0743
     58 H25         2.1895   -0.4183  -10.3506 H         1 <0>         0.0700
     59 H26         3.1699   -1.8298  -10.8734 H         1 <0>         0.0785
     60 H27         0.6943   -2.3435  -10.4893 H         1 <0>         0.0800
     61 H28         1.8257   -3.3516   -9.5247 H         1 <0>         0.0808
     62 H29         1.1574    0.0773   -5.6910 H         1 <0>         0.1261
     63 H30        -1.0821   -0.8075   -5.2018 H         1 <0>         0.1142
     64 H31        -2.1504   -2.3806   -6.7718 H         1 <0>         0.1217
     65 H32        -0.9692   -3.0595   -8.8167 H         1 <0>         0.1233
     66 H33         0.7268    4.3442    0.0466 H         1 <0>         0.4543
@<TRIPOS>BOND
     1    1    2 1
     2    1   35 1
     3    1   36 1
     4    1   37 1
     5    2    6 2
     6    2    3 1
     7    3    4 2
     8    3   12 1
     9    4    5 1
    10    4    7 1
    11    5    6 1
    12    7    8 2
    13    7   38 1
    14    8    9 1
    15    8   39 1
    16    9   10 1
    17    9   11 1
    18    9   66 1
    19   10   40 1
    20   10   41 1
    21   10   42 1
    22   11   43 1
    23   11   44 1
    24   11   45 1
    25   12   13 2
    26   12   14 2
    27   12   15 1
    28   15   20 1
    29   15   16 1
    30   16   17 1
    31   16   46 1
    32   16   47 1
    33   17   18 1
    34   17   48 1
    35   17   49 1
    36   18   19 1
    37   18   21 1
    38   18   50 1
    39   19   20 1
    40   19   51 1
    41   19   52 1
    42   20   53 1
    43   20   54 1
    44   21   22 2
    45   21   23 am
    46   23   24 1
    47   23   55 1
    48   24   25 1
    49   24   30 1
    50   24   26 1
    51   26   27 1
    52   26   56 1
    53   26   57 1
    54   27   28 1
    55   27   58 1
    56   27   59 1
    57   28   29 1
    58   28   60 1
    59   28   61 1
    60   29   34 ar
    61   29   30 ar
    62   30   31 ar
    63   31   32 ar
    64   31   62 1
    65   32   33 ar
    66   32   63 1
    67   33   34 ar
    68   33   64 1
    69   34   65 1
