@<TRIPOS>MOLECULE
ZINC09672267
   31    33     0     0     0
SMALL
USER_CHARGES

@<TRIPOS>ATOM
      1 C1         -0.0169    1.3986    0.0097 C.ar      1 <0>        -0.2100
      2 C2          1.1266    2.1255    0.0027 C.ar      1 <0>        -0.0288
      3 C3          2.3741    1.4644   -0.0128 C.ar      1 <0>        -0.2419
      4 C4          3.6935    1.8771   -0.0232 C.2       1 <0>         0.0740
      5 N1          4.4674    0.7835   -0.0365 N.pl3     1 <0>        -0.4520
      6 N2          3.6696   -0.3664   -0.0350 N.2       1 <0>        -0.3546
      7 H1          5.4373    0.7881   -0.0462 H         1 <0>         0.4315
      8 C5          2.3987   -0.0066   -0.0209 C.ar      1 <0>         0.1623
      9 C6          1.1719   -0.7033   -0.0130 C.ar      1 <0>        -0.2286
     10 C7          0.0021   -0.0041    0.0020 C.ar      1 <0>         0.3028
     11 N3         -1.2079   -0.7015    0.0098 N.2       1 <0>        -1.0669
     12 S1         -2.6414    0.1276    0.0280 S.o2      1 <0>         2.5891
     13 O1         -2.7052    0.8010    1.2777 O.2       1 <0>        -1.0186
     14 O2         -2.7290    0.8144   -1.2129 O.2       1 <0>        -1.0051
     15 C8         -3.9350   -1.0687    0.0340 C.ar      1 <0>        -0.6153
     16 C9         -4.7792   -1.1686    1.1241 C.ar      1 <0>         0.0461
     17 C10        -5.7937   -2.1073    1.1291 C.ar      1 <0>        -0.0765
     18 C11        -5.9649   -2.9469    0.0440 C.ar      1 <0>        -0.0093
     19 C12        -5.1220   -2.8476   -1.0466 C.ar      1 <0>        -0.1359
     20 C13        -4.1097   -1.9042   -1.0546 C.ar      1 <0>         0.1014
     21 Cl1        -3.0548   -1.7741   -2.4272 Cl        1 <0>         0.0046
     22 N4         -6.6969   -2.2141    2.2968 N.pl3     1 <0>         0.0389
     23 O3         -6.5472   -1.4804    3.2459 O.2       1 <0>        -0.1524
     24 O4         -7.5844   -3.0351    2.3014 O.3       1 <0>        -0.1621
     25 H2         -0.9669    1.9121    0.0261 H         1 <0>         0.1019
     26 H3          1.0841    3.2046    0.0086 H         1 <0>         0.1124
     27 H4          4.0392    2.9003   -0.0213 H         1 <0>         0.1737
     28 H5          1.1599   -1.7832   -0.0189 H         1 <0>         0.1171
     29 H6         -4.6457   -0.5134    1.9721 H         1 <0>         0.1757
     30 H7         -6.7574   -3.6806    0.0488 H         1 <0>         0.1644
     31 H8         -5.2556   -3.5037   -1.8940 H         1 <0>         0.1622
@<TRIPOS>BOND
     1    1   10 ar
     2    1    2 ar
     3    1   25 1
     4    2    3 ar
     5    2   26 1
     6    3    8 ar
     7    3    4 2
     8    4   27 1
     9    4    5 1
    10    5    7 1
    11    5    6 1
    12    6    8 2
    13    8    9 ar
    14    9   10 ar
    15    9   28 1
    16   10   11 1
    17   11   12 1
    18   12   13 2
    19   12   14 2
    20   12   15 1
    21   15   20 ar
    22   15   16 ar
    23   16   17 ar
    24   16   29 1
    25   17   18 ar
    26   17   22 1
    27   18   19 ar
    28   18   30 1
    29   19   20 ar
    30   19   31 1
    31   20   21 1
    32   22   23 2
    33   22   24 1
