@<TRIPOS>MOLECULE
ZINC20809623
   64    67     0     0     0
SMALL
USER_CHARGES
(2R)-N-(2,3-dihydro-1,4-benzodioxin-6-yl)-2-[4-(3,4-dimethoxyphenyl)sulfonylpiperazin-1-yl]propanamide
@<TRIPOS>ATOM
      1 C1          5.7090   -2.2721    1.3885 C.3       1 <0>        -0.1832
      2 C2          4.9527   -2.7393    0.1432 C.3       1 <0>         0.0148
      3 H1          5.5436   -2.5595   -0.7670 H         1 <0>         0.1671
      4 C3          3.6387   -2.0074    0.0495 C.2       1 <0>         0.5055
      5 O1          2.5968   -2.6283    0.0584 O.2       1 <0>        -0.5125
      6 N1          3.6213   -0.6630   -0.0442 N.am      1 <0>        -0.6500
      7 C4          2.4005    0.0241   -0.0335 C.ar      1 <0>         0.1243
      8 C5          2.3087    1.2677    0.5771 C.ar      1 <0>        -0.1254
      9 C6          1.1051    1.9454    0.5882 C.ar      1 <0>        -0.0941
     10 C7         -0.0149    1.3866   -0.0097 C.ar      1 <0>         0.0545
     11 C8          0.0745    0.1429   -0.6238 C.ar      1 <0>         0.0698
     12 C9          1.2825   -0.5375   -0.6336 C.ar      1 <0>        -0.1122
     13 O2         -1.0115   -0.4177   -1.2231 O.3       1 <0>        -0.3043
     14 C10        -2.2907    0.1196   -0.8701 C.3       1 <0>         0.0166
     15 C11        -2.1982    1.6508   -0.9156 C.3       1 <0>         0.0167
     16 O3         -1.1950    2.0661    0.0185 O.3       1 <0>        -0.3018
     17 N2          4.7032   -4.1840    0.2351 N.4       1 <0>        -0.3848
     18 C12         3.9136   -4.5068    1.4311 C.3       1 <0>        -0.0398
     19 C13         3.5218   -5.9878    1.3960 C.3       1 <0>         0.1003
     20 N3          4.7422   -6.7899    1.2214 N.pl3     1 <0>        -1.0114
     21 C14         5.6554   -6.4374    0.1236 C.3       1 <0>         0.0957
     22 C15         5.9632   -4.9386    0.2088 C.3       1 <0>        -0.0217
     23 S1          5.0789   -8.0567    2.2335 S.o2      1 <0>         2.6915
     24 O4          3.8367   -8.4864    2.7734 O.2       1 <0>        -0.9363
     25 O5          5.9414   -8.9302    1.5177 O.2       1 <0>        -0.9355
     26 C16         6.0172   -7.4133    3.5789 C.ar      1 <0>        -0.6878
     27 C17         7.3973   -7.3802    3.5039 C.ar      1 <0>        -0.0127
     28 C18         8.1377   -6.8712    4.5545 C.ar      1 <0>        -0.1962
     29 C19         7.4973   -6.4033    5.6907 C.ar      1 <0>         0.1670
     30 C20         6.1085   -6.4418    5.7686 C.ar      1 <0>         0.0871
     31 C21         5.3720   -6.9481    4.7096 C.ar      1 <0>        -0.0849
     32 O6          5.4753   -5.9833    6.8813 O.3       1 <0>        -0.2993
     33 C22         4.0481   -6.0535    6.8910 C.3       1 <0>         0.0162
     34 O7          8.2244   -5.9069    6.7272 O.3       1 <0>        -0.2946
     35 C23         9.6455   -5.8985    6.5774 C.3       1 <0>         0.0154
     36 H2          6.6681   -2.8063    1.4569 H         1 <0>         0.0973
     37 H3          5.1066   -2.4838    2.2842 H         1 <0>         0.0899
     38 H4          5.8959   -1.1903    1.3196 H         1 <0>         0.1110
     39 H5          4.5656   -0.1053   -0.1291 H         1 <0>         0.4469
     40 H6          3.1789    1.7056    1.0433 H         1 <0>         0.1393
     41 H7          1.0358    2.9125    1.0639 H         1 <0>         0.1460
     42 H8          1.3533   -1.5049   -1.1086 H         1 <0>         0.1491
     43 H9         -3.0473   -0.2344   -1.5859 H         1 <0>         0.1304
     44 H10        -2.5609   -0.2124    0.1432 H         1 <0>         0.0826
     45 H11        -1.9248    1.9716   -1.9317 H         1 <0>         0.0839
     46 H12        -3.1714    2.0852   -0.6434 H         1 <0>         0.1314
     47 H13         4.5130   -4.3061    2.3313 H         1 <0>         0.1285
     48 H14         3.0055   -3.8864    1.4494 H         1 <0>         0.1664
     49 H15         3.0267   -6.2586    2.3402 H         1 <0>         0.1343
     50 H16         2.8330   -6.1651    0.5569 H         1 <0>         0.1085
     51 H17         6.5851   -7.0175    0.2195 H         1 <0>         0.1385
     52 H18         5.1770   -6.6681   -0.8397 H         1 <0>         0.1080
     53 H19         6.5547   -4.6341   -0.6672 H         1 <0>         0.1487
     54 H20         6.5337   -4.7318    1.1263 H         1 <0>         0.1353
     55 H21         7.8979   -7.7488    2.6207 H         1 <0>         0.1461
     56 H22         9.2155   -6.8424    4.4916 H         1 <0>         0.1501
     57 H23         4.2941   -6.9794    4.7676 H         1 <0>         0.1511
     58 H24         3.6678   -5.6531    7.8423 H         1 <0>         0.1124
     59 H25         3.7318   -7.1013    6.7816 H         1 <0>         0.0638
     60 H26         3.6461   -5.4601    6.0565 H         1 <0>         0.0553
     61 H27        10.1070   -5.4746    7.4815 H         1 <0>         0.1134
     62 H28         9.9186   -5.2867    5.7050 H         1 <0>         0.0618
     63 H29        10.0048   -6.9277    6.4304 H         1 <0>         0.0652
     64 H30         4.1154   -4.4839   -0.6450 H         1 <0>         0.4508
@<TRIPOS>BOND
     1    1    2 1
     2    1   36 1
     3    1   37 1
     4    1   38 1
     5    2    3 1
     6    2    4 1
     7    2   17 1
     8    4    5 2
     9    4    6 am
    10    6    7 1
    11    6   39 1
    12    7   12 ar
    13    7    8 ar
    14    8    9 ar
    15    8   40 1
    16    9   10 ar
    17    9   41 1
    18   10   16 1
    19   10   11 ar
    20   11   12 ar
    21   11   13 1
    22   12   42 1
    23   13   14 1
    24   14   15 1
    25   14   43 1
    26   14   44 1
    27   15   16 1
    28   15   45 1
    29   15   46 1
    30   17   22 1
    31   17   18 1
    32   17   64 1
    33   18   19 1
    34   18   47 1
    35   18   48 1
    36   19   20 1
    37   19   49 1
    38   19   50 1
    39   20   21 1
    40   20   23 1
    41   21   22 1
    42   21   51 1
    43   21   52 1
    44   22   53 1
    45   22   54 1
    46   23   24 2
    47   23   25 2
    48   23   26 1
    49   26   31 ar
    50   26   27 ar
    51   27   28 ar
    52   27   55 1
    53   28   29 ar
    54   28   56 1
    55   29   30 ar
    56   29   34 1
    57   30   31 ar
    58   30   32 1
    59   31   57 1
    60   32   33 1
    61   33   58 1
    62   33   59 1
    63   33   60 1
    64   34   35 1
    65   35   61 1
    66   35   62 1
    67   35   63 1
