@<TRIPOS>MOLECULE
ZINC24894294
   46    49     0     0     0
SMALL
USER_CHARGES
(2R)-N-cyclopropyl-2-[4-(5-nitroimidazo[2,1-b]thiazol-6-yl)piperazin-1-yl]propanamide
@<TRIPOS>ATOM
      1 C1          1.0384   -2.3257   -0.2089 C.3       1 <0>        -0.1812
      2 C2          0.7243   -1.9550    1.2419 C.3       1 <0>         0.0149
      3 H1          1.4514   -2.4096    1.9308 H         1 <0>         0.1605
      4 C3         -0.6661   -2.4208    1.5896 C.2       1 <0>         0.5066
      5 O1         -1.5712   -1.6180    1.6741 O.2       1 <0>        -0.5326
      6 N1         -0.9037   -3.7295    1.8068 N.am      1 <0>        -0.7044
      7 C4         -2.2553   -4.1824    2.1449 C.3       1 <0>        -0.0292
      8 C5         -2.3956   -5.2081    3.2714 C.3       1 <0>        -0.1309
      9 C6         -2.6171   -5.6325    1.8175 C.3       1 <0>        -0.1259
     10 N2          0.8071   -0.4973    1.4037 N.4       1 <0>        -0.3923
     11 C7          0.0702    0.1938    0.3365 C.3       1 <0>        -0.0121
     12 C8          0.1139    1.7034    0.5850 C.3       1 <0>         0.0379
     13 N3          1.5134    2.1497    0.6290 N.pl3     1 <0>        -0.4542
     14 C9          2.2503    1.4586    1.6962 C.3       1 <0>         0.0126
     15 C10         2.2066   -0.0509    1.4476 C.3       1 <0>         0.0041
     16 C11         1.5925    3.5424    0.7836 C.2       1 <0>         0.3057
     17 C12         2.7287    4.2657    0.8594 C.2       1 <0>         0.0063
     18 N4          2.3657    5.6070    1.0101 N.pl3     1 <0>        -0.4002
     19 C13         2.9852    6.8302    1.1441 C.2       1 <0>         0.0050
     20 C14         2.2697    7.9469    1.2720 C.2       1 <0>        -0.1383
     21 S1          0.5976    7.3222    1.2090 S.3       1 <0>         0.2158
     22 C15         0.9967    5.6008    1.0150 C.2       1 <0>         0.2332
     23 N5          0.5494    4.3847    0.8757 N.2       1 <0>        -0.4496
     24 N6          4.1157    3.7326    0.7944 N.pl3     1 <0>         0.0418
     25 O2          4.6879    3.3977    1.8162 O.2       1 <0>        -0.1268
     26 O3          4.6793    3.6309   -0.2805 O.3       1 <0>        -0.0863
     27 H2          2.0533   -1.9857   -0.4627 H         1 <0>         0.0976
     28 H3          0.3114   -1.8407   -0.8769 H         1 <0>         0.0924
     29 H4          0.9763   -3.4172   -0.3301 H         1 <0>         0.1103
     30 H5         -0.0827   -4.4576    1.7302 H         1 <0>         0.4183
     31 H6         -2.6721   -3.1899    1.9187 H         1 <0>         0.1562
     32 H7         -1.4428   -5.2879    3.8154 H         1 <0>         0.1066
     33 H8         -3.1873   -4.8862    3.9639 H         1 <0>         0.1152
     34 H9         -3.5919   -5.6612    1.3086 H         1 <0>         0.1168
     35 H10        -1.8474   -6.0630    1.1600 H         1 <0>         0.1079
     36 H11         0.5339   -0.0324   -0.6350 H         1 <0>         0.1396
     37 H12        -0.9754   -0.1479    0.3322 H         1 <0>         0.1613
     38 H13        -0.4127    2.2243   -0.2283 H         1 <0>         0.1394
     39 H14        -0.3750    1.9315    1.5436 H         1 <0>         0.0839
     40 H15         3.2958    1.8004    1.7005 H         1 <0>         0.1277
     41 H16         1.7867    1.6848    2.6677 H         1 <0>         0.0840
     42 H17         2.7326   -0.5727    2.2606 H         1 <0>         0.1500
     43 H18         2.6948   -0.2798    0.4888 H         1 <0>         0.1445
     44 H19         4.0638    6.8846    1.1457 H         1 <0>         0.1849
     45 H20         2.6119    8.9651    1.3843 H         1 <0>         0.2365
     46 H21         0.3373   -0.2379    2.3639 H         1 <0>         0.4463
@<TRIPOS>BOND
     1    1    2 1
     2    1   27 1
     3    1   28 1
     4    1   29 1
     5    2    3 1
     6    2    4 1
     7    2   10 1
     8    4    5 2
     9    4    6 am
    10    6    7 1
    11    6   30 1
    12    7    9 1
    13    7    8 1
    14    7   31 1
    15    8    9 1
    16    8   32 1
    17    8   33 1
    18    9   34 1
    19    9   35 1
    20   10   15 1
    21   10   11 1
    22   10   46 1
    23   11   12 1
    24   11   36 1
    25   11   37 1
    26   12   13 1
    27   12   38 1
    28   12   39 1
    29   13   14 1
    30   13   16 1
    31   14   15 1
    32   14   40 1
    33   14   41 1
    34   15   42 1
    35   15   43 1
    36   16   23 1
    37   16   17 2
    38   17   18 1
    39   17   24 1
    40   18   22 1
    41   18   19 1
    42   19   20 2
    43   19   44 1
    44   20   21 1
    45   20   45 1
    46   21   22 1
    47   22   23 2
    48   24   25 2
    49   24   26 1
