@<TRIPOS>MOLECULE
ZINC37934629
   31    31     0     0     0
SMALL
USER_CHARGES

@<TRIPOS>ATOM
      1 C1         -0.0184    1.5028    0.0103 C.3       1 <0>        -0.1295
      2 C2          0.0021   -0.0041    0.0020 C.ar      1 <0>        -0.0244
      3 C3          0.0057   -0.6888   -1.1991 C.ar      1 <0>        -0.1353
      4 C4          0.0245   -2.0707   -1.2067 C.ar      1 <0>        -0.0221
      5 C5          0.0400   -2.7685   -0.0132 C.ar      1 <0>        -0.6564
      6 C6          0.0373   -2.0840    1.1875 C.ar      1 <0>        -0.0178
      7 C7          0.0229   -0.7015    1.1951 C.ar      1 <0>        -0.1045
      8 C8          0.0252    0.0449    2.5043 C.3       1 <0>        -0.1212
      9 S1          0.0628   -4.5303   -0.0229 S.o2      1 <0>         2.5070
     10 O1         -0.5285   -4.9073    1.2130 O.2       1 <0>        -0.9154
     11 O2         -0.5422   -4.8939   -1.2562 O.2       1 <0>        -0.9152
     12 C9          1.8217   -4.9738   -0.0350 C.3       1 <0>        -0.4392
     13 C10         2.4856   -4.3923   -1.2848 C.3       1 <0>        -0.1426
     14 C11         2.4995   -4.4059    1.2136 C.3       1 <0>        -0.1425
     15 C12         1.9581   -6.4394   -0.0437 C.1       1 <0>         0.2068
     16 N1          2.0634   -7.5705   -0.0505 N.1       1 <0>        -0.3722
     17 H1          1.0042    1.8801    0.0026 H         1 <0>         0.0814
     18 H2         -0.5455    1.8639   -0.8728 H         1 <0>         0.0745
     19 H3         -0.5286    1.8543    0.9071 H         1 <0>         0.0765
     20 H4         -0.0064   -0.1437   -2.1314 H         1 <0>         0.1362
     21 H5          0.0266   -2.6056   -2.1449 H         1 <0>         0.1446
     22 H6          0.0491   -2.6290    2.1199 H         1 <0>         0.1443
     23 H7         -1.0017    0.2110    2.8297 H         1 <0>         0.0762
     24 H8          0.5542   -0.5412    3.2558 H         1 <0>         0.0726
     25 H9          0.5249    1.0049    2.3743 H         1 <0>         0.0733
     26 H10         2.3846   -3.3070   -1.2784 H         1 <0>         0.0928
     27 H11         3.5425   -4.6588   -1.2921 H         1 <0>         0.0921
     28 H12         2.0027   -4.7969   -2.1744 H         1 <0>         0.0878
     29 H13         2.0265   -4.8201    2.1039 H         1 <0>         0.0876
     30 H14         3.5564   -4.6723    1.2063 H         1 <0>         0.0922
     31 H15         2.3984   -3.3206    1.2200 H         1 <0>         0.0925
@<TRIPOS>BOND
     1    1    2 1
     2    1   17 1
     3    1   18 1
     4    1   19 1
     5    2    7 ar
     6    2    3 ar
     7    3    4 ar
     8    3   20 1
     9    4    5 ar
    10    4   21 1
    11    5    6 ar
    12    5    9 1
    13    6    7 ar
    14    6   22 1
    15    7    8 1
    16    8   23 1
    17    8   24 1
    18    8   25 1
    19    9   10 2
    20    9   11 2
    21    9   12 1
    22   12   13 1
    23   12   14 1
    24   12   15 1
    25   13   26 1
    26   13   27 1
    27   13   28 1
    28   14   29 1
    29   14   30 1
    30   14   31 1
    31   15   16 3
