@<TRIPOS>MOLECULE
ZINC13563862
   42    45     0     0     0
SMALL
USER_CHARGES
(3S)-N-[(2-hydroxy-1-naphthyl)methyleneamino]-2,3-dihydro-1,4-benzodioxine-3-carboxamide
@<TRIPOS>ATOM
      1 C1         -5.3542   11.3982   -4.8175 C.ar      1 <0>        -0.1163
      2 C2         -4.2359   11.9044   -4.1594 C.ar      1 <0>        -0.0993
      3 C3         -3.8537   11.4108   -2.9476 C.ar      1 <0>        -0.1123
      4 C4         -4.5946   10.3811   -2.3549 C.ar      1 <0>        -0.0143
      5 C5         -5.7298    9.8610   -3.0234 C.ar      1 <0>        -0.0635
      6 C6         -6.0919   10.3910   -4.2737 C.ar      1 <0>        -0.0973
      7 C7         -6.4756    8.8311   -2.4242 C.ar      1 <0>        -0.0659
      8 C8         -6.1171    8.3261   -1.2139 C.ar      1 <0>        -0.1489
      9 C9         -5.0057    8.8016   -0.5200 C.ar      1 <0>         0.1308
     10 C10        -4.2210    9.8222   -1.0573 C.ar      1 <0>        -0.1364
     11 C11        -3.0477   10.3285   -0.3313 C.2       1 <0>         0.1160
     12 N1         -2.1083    9.5094    0.0373 N.2       1 <0>        -0.1979
     13 N2         -2.1484    8.1691   -0.3686 N.am      1 <0>        -0.5681
     14 C12        -1.2370    7.2949    0.1020 C.2       1 <0>         0.5433
     15 O1         -0.4385    7.6461    0.9451 O.2       1 <0>        -0.4720
     16 C13        -1.2099    5.8811   -0.4191 C.3       1 <0>         0.0416
     17 H1         -1.1016    5.8905   -1.5036 H         1 <0>         0.1141
     18 C14        -2.5108    5.1630   -0.0351 C.3       1 <0>         0.0372
     19 O2         -2.4458    3.8219   -0.5324 O.3       1 <0>        -0.2986
     20 C15        -1.2882    3.1420   -0.3078 C.ar      1 <0>         0.0440
     21 C16        -1.2750    1.7606   -0.4325 C.ar      1 <0>        -0.1106
     22 C17        -0.1080    1.0561   -0.2051 C.ar      1 <0>        -0.1138
     23 C18         1.0518    1.7269    0.1361 C.ar      1 <0>        -0.1119
     24 C19         1.0465    3.1034    0.2577 C.ar      1 <0>        -0.1083
     25 C20        -0.1231    3.8160    0.0380 C.ar      1 <0>         0.0507
     26 O3         -0.1149    5.1706    0.1694 O.3       1 <0>        -0.2776
     27 O4         -4.6851    8.2684    0.6867 O.3       1 <0>        -0.4948
     28 H2         -5.6365   11.8058   -5.7769 H         1 <0>         0.1279
     29 H3         -3.6636   12.6986   -4.6156 H         1 <0>         0.1289
     30 H4         -2.9841   11.8113   -2.4478 H         1 <0>         0.1313
     31 H5         -6.9570   10.0091   -4.7953 H         1 <0>         0.1320
     32 H6         -7.3439    8.4366   -2.9310 H         1 <0>         0.1358
     33 H7         -6.7097    7.5354   -0.7781 H         1 <0>         0.1357
     34 H8         -2.9660   11.3812   -0.1043 H         1 <0>         0.1900
     35 H9         -2.8322    7.8704   -0.9884 H         1 <0>         0.3893
     36 H10        -3.3611    5.6794   -0.4804 H         1 <0>         0.1259
     37 H11        -2.6168    5.1481    1.0497 H         1 <0>         0.0883
     38 H12        -2.1786    1.2347   -0.7032 H         1 <0>         0.1366
     39 H13        -0.1010   -0.0198   -0.2984 H         1 <0>         0.1348
     40 H14         1.9634    1.1740    0.3082 H         1 <0>         0.1354
     41 H15         1.9538    3.6249    0.5244 H         1 <0>         0.1380
     42 H16        -5.1586    8.6654    1.4305 H         1 <0>         0.3998
@<TRIPOS>BOND
     1    1    6 ar
     2    1    2 ar
     3    1   28 1
     4    2    3 ar
     5    2   29 1
     6    3    4 ar
     7    3   30 1
     8    4   10 ar
     9    4    5 ar
    10    5    6 ar
    11    5    7 ar
    12    6   31 1
    13    7    8 ar
    14    7   32 1
    15    8    9 ar
    16    8   33 1
    17    9   10 ar
    18    9   27 1
    19   10   11 1
    20   11   12 2
    21   11   34 1
    22   12   13 1
    23   13   14 am
    24   13   35 1
    25   14   15 2
    26   14   16 1
    27   16   17 1
    28   16   26 1
    29   16   18 1
    30   18   19 1
    31   18   36 1
    32   18   37 1
    33   19   20 1
    34   20   25 ar
    35   20   21 ar
    36   21   22 ar
    37   21   38 1
    38   22   23 ar
    39   22   39 1
    40   23   24 ar
    41   23   40 1
    42   24   25 ar
    43   24   41 1
    44   25   26 1
    45   27   42 1
