@<TRIPOS>MOLECULE
ZINC19791066
   50    52     0     0     0
SMALL
USER_CHARGES
N-[4-[(2,4-dimethylphenyl)methyl]piperazin-1-yl]-1-(2-nitrophenyl)methanimine
@<TRIPOS>ATOM
      1 C1         -6.9061    3.9168    1.8626 C.3       1 <0>        -0.1193
      2 C2         -5.8248    4.9469    1.6604 C.ar      1 <0>        -0.0784
      3 C3         -5.0048    5.3044    2.7147 C.ar      1 <0>        -0.1280
      4 C4         -4.0134    6.2494    2.5294 C.ar      1 <0>        -0.1065
      5 C5         -3.8416    6.8372    1.2899 C.ar      1 <0>        -0.0963
      6 C6         -4.6647    6.4836    0.2373 C.ar      1 <0>        -0.0563
      7 C7         -5.6530    5.5344    0.4213 C.ar      1 <0>        -0.1253
      8 C8         -4.4814    7.1288   -1.1122 C.3       1 <0>        -0.1150
      9 C9         -2.7609    7.8679    1.0880 C.3       1 <0>         0.0955
     10 N1         -1.6448    7.2680    0.3447 N.3       1 <0>        -0.5271
     11 C10        -0.4959    8.1819    0.2918 C.3       1 <0>         0.0389
     12 C11         0.5733    7.5997   -0.6388 C.3       1 <0>         0.1542
     13 N2          0.8857    6.2330   -0.1942 N.pl3     1 <0>        -0.5783
     14 C12        -0.2290    5.2952    0.0084 C.3       1 <0>         0.1272
     15 C13        -1.2670    5.9698    0.9193 C.3       1 <0>         0.0452
     16 N3          2.2105    5.8333    0.0251 N.2       1 <0>        -0.2077
     17 C14         2.6963    4.8166   -0.6181 C.2       1 <0>         0.0899
     18 C15         1.9034    4.1680   -1.6792 C.ar      1 <0>        -0.0373
     19 C16         0.8779    4.8699   -2.3175 C.ar      1 <0>        -0.1040
     20 C17         0.1409    4.2571   -3.3092 C.ar      1 <0>        -0.0760
     21 C18         0.4113    2.9483   -3.6684 C.ar      1 <0>        -0.1062
     22 C19         1.4291    2.2490   -3.0445 C.ar      1 <0>        -0.0604
     23 C20         2.1745    2.8493   -2.0509 C.ar      1 <0>        -0.0262
     24 N4          3.2593    2.0977   -1.3807 N.pl3     1 <0>         0.0311
     25 O1          3.5851    0.9995   -1.7946 O.2       1 <0>        -0.1498
     26 O2          3.8262    2.5775   -0.4153 O.3       1 <0>        -0.1627
     27 H1         -6.8884    3.5664    2.9052 H         1 <0>         0.0655
     28 H2         -6.7331    3.0662    1.1869 H         1 <0>         0.0700
     29 H3         -7.8860    4.3659    1.6433 H         1 <0>         0.0706
     30 H4         -5.1393    4.8455    3.6831 H         1 <0>         0.1206
     31 H5         -3.3732    6.5290    3.3530 H         1 <0>         0.1177
     32 H6         -6.2937    5.2554   -0.4021 H         1 <0>         0.1209
     33 H7         -5.2228    6.7231   -1.8163 H         1 <0>         0.0583
     34 H8         -3.4681    6.9180   -1.4848 H         1 <0>         0.0838
     35 H9         -4.6195    8.2162   -1.0205 H         1 <0>         0.0667
     36 H10        -3.1662    8.7174    0.5186 H         1 <0>         0.0881
     37 H11        -2.4026    8.2200    2.0666 H         1 <0>         0.0420
     38 H12        -0.8229    9.1602   -0.0902 H         1 <0>         0.0879
     39 H13        -0.0776    8.3039    1.3018 H         1 <0>         0.0443
     40 H14         0.1909    7.5806   -1.6700 H         1 <0>         0.0613
     41 H15         1.4775    8.2245   -0.5946 H         1 <0>         0.0871
     42 H16        -0.6825    5.0494   -0.9631 H         1 <0>         0.0667
     43 H17         0.1467    4.3756    0.4808 H         1 <0>         0.0693
     44 H18        -0.8355    6.1231    1.9195 H         1 <0>         0.0393
     45 H19        -2.1586    5.3305    0.9987 H         1 <0>         0.0894
     46 H20         3.6995    4.4384   -0.3720 H         1 <0>         0.2075
     47 H21         0.6626    5.8897   -2.0349 H         1 <0>         0.1719
     48 H22        -0.6522    4.7985   -3.8035 H         1 <0>         0.1453
     49 H23        -0.1720    2.4720   -4.4425 H         1 <0>         0.1489
     50 H24         1.6374    1.2293   -3.3327 H         1 <0>         0.1557
@<TRIPOS>BOND
     1    1    2 1
     2    1   27 1
     3    1   28 1
     4    1   29 1
     5    2    7 ar
     6    2    3 ar
     7    3    4 ar
     8    3   30 1
     9    4    5 ar
    10    4   31 1
    11    5    6 ar
    12    5    9 1
    13    6    7 ar
    14    6    8 1
    15    7   32 1
    16    8   33 1
    17    8   34 1
    18    8   35 1
    19    9   10 1
    20    9   36 1
    21    9   37 1
    22   10   15 1
    23   10   11 1
    24   11   12 1
    25   11   38 1
    26   11   39 1
    27   12   13 1
    28   12   40 1
    29   12   41 1
    30   13   14 1
    31   13   16 1
    32   14   15 1
    33   14   42 1
    34   14   43 1
    35   15   44 1
    36   15   45 1
    37   16   17 2
    38   17   18 1
    39   17   46 1
    40   18   23 ar
    41   18   19 ar
    42   19   20 ar
    43   19   47 1
    44   20   21 ar
    45   20   48 1
    46   21   22 ar
    47   21   49 1
    48   22   23 ar
    49   22   50 1
    50   23   24 1
    51   24   25 2
    52   24   26 1
