@<TRIPOS>MOLECULE
ZINC09520340
   30    32     0     0     0
SMALL
USER_CHARGES
prop-2-ynylsulfanylBLAHone
@<TRIPOS>ATOM
      1 C1          2.4598    2.7256   -0.0068 C.1       1 <0>        -0.1400
      2 C2          1.3584    2.3192    0.0015 C.1       1 <0>        -0.1985
      3 C3         -0.0225    1.8097    0.0120 C.3       1 <0>        -0.0049
      4 S1          0.0021   -0.0041    0.0020 S.3       1 <0>         0.0461
      5 C4         -1.7016   -0.4536    0.0159 C.2       1 <0>         0.2051
      6 N1         -2.7176    0.3748    0.0296 N.2       1 <0>        -0.2746
      7 N2         -3.8966   -0.3820    0.0356 N.2       1 <0>        -0.3095
      8 C5         -3.5641   -1.6502    0.0250 C.2       1 <0>         0.4580
      9 N3         -2.1982   -1.7300    0.0082 N.pl3     1 <0>        -0.4470
     10 C6         -1.5593   -2.9573   -0.0099 C.2       1 <0>         0.1731
     11 C7         -2.2838   -4.0831   -0.0106 C.2       1 <0>        -0.1886
     12 C8         -3.7063   -4.0043   -0.0012 C.2       1 <0>         0.5567
     13 O1         -4.3689   -5.0262   -0.0082 O.2       1 <0>        -0.4970
     14 N4         -4.3221   -2.8088    0.0231 N.am      1 <0>        -0.6102
     15 H1         -5.2908   -2.7586    0.0291 H         1 <0>         0.4391
     16 C9         -1.6652   -5.4566   -0.0195 C.3       1 <0>        -0.0532
     17 C10        -0.2055   -5.3896   -0.4631 C.3       1 <0>        -0.1256
     18 C11         0.5002   -4.3148    0.3733 C.3       1 <0>        -0.1143
     19 C12        -0.0529   -2.9519   -0.0370 C.3       1 <0>        -0.0979
     20 H2          3.4449    3.0890   -0.0142 H         1 <0>         0.2284
     21 H3         -0.5497    2.1708   -0.8711 H         1 <0>         0.1223
     22 H4         -0.5327    2.1613    0.9088 H         1 <0>         0.1223
     23 H5         -2.2200   -6.0956   -0.7065 H         1 <0>         0.0929
     24 H6         -1.7163   -5.8790    0.9840 H         1 <0>         0.0885
     25 H7         -0.1538   -5.1263   -1.5195 H         1 <0>         0.0722
     26 H8          0.2736   -6.3552   -0.3009 H         1 <0>         0.0844
     27 H9          1.5733   -4.3480    0.1850 H         1 <0>         0.0876
     28 H10         0.3072   -4.4864    1.4323 H         1 <0>         0.0764
     29 H11         0.2870   -2.7154   -1.0452 H         1 <0>         0.1076
     30 H12         0.3157   -2.1926    0.6527 H         1 <0>         0.1007
@<TRIPOS>BOND
     1    1    2 3
     2    1   20 1
     3    2    3 1
     4    3    4 1
     5    3   21 1
     6    3   22 1
     7    4    5 1
     8    5    9 1
     9    5    6 2
    10    6    7 1
    11    7    8 2
    12    8   14 1
    13    8    9 1
    14    9   10 1
    15   10   19 1
    16   10   11 2
    17   11   12 1
    18   11   16 1
    19   12   13 2
    20   12   14 am
    21   14   15 1
    22   16   17 1
    23   16   23 1
    24   16   24 1
    25   17   18 1
    26   17   25 1
    27   17   26 1
    28   18   19 1
    29   18   27 1
    30   18   28 1
    31   19   29 1
    32   19   30 1
