@<TRIPOS>MOLECULE
ZINC10245744
   53    56     0     0     0
SMALL
USER_CHARGES

@<TRIPOS>ATOM
      1 C1         -0.0184    1.5028    0.0103 C.3       1 <0>        -0.1227
      2 C2          0.0021   -0.0041    0.0020 C.ar      1 <0>        -0.0558
      3 C3          0.0057   -0.6889   -1.1978 C.ar      1 <0>        -0.1114
      4 C4          0.0240   -2.0713   -1.2061 C.ar      1 <0>        -0.0902
      5 C5          0.0391   -2.7726   -0.0143 C.ar      1 <0>        -0.1137
      6 C6          0.0355   -2.0934    1.1882 C.ar      1 <0>        -0.0875
      7 C7          0.0230   -0.7051    1.1997 C.ar      1 <0>         0.0890
      8 N1          0.0252   -0.0125    2.4193 N.pl3     1 <0>        -0.4114
      9 C8         -1.0646    0.3766    3.1521 C.2       1 <0>         0.2005
     10 N2         -0.6196    0.9897    4.2123 N.2       1 <0>        -0.2795
     11 N3          0.6652    1.0157    4.2020 N.2       1 <0>        -0.2876
     12 C9          1.1163    0.4101    3.1280 C.2       1 <0>         0.1499
     13 S1          2.8063    0.1871    2.6822 S.3       1 <0>         0.0873
     14 C10         3.7244    0.9728    4.0351 C.3       1 <0>        -0.1061
     15 H1          3.3868    2.0025    4.1533 H         1 <0>         0.1345
     16 C11         3.4773    0.2027    5.3338 C.3       1 <0>        -0.1492
     17 C12         5.1972    0.9606    3.7162 C.2       1 <0>         0.5440
     18 O1          5.6337    0.1808    2.8962 O.2       1 <0>        -0.4776
     19 N4          6.0294    1.8161    4.3423 N.am      1 <0>        -0.6005
     20 C13         7.3874    1.8048    4.0484 C.2       1 <0>         0.3204
     21 N5          8.3564    2.5483    4.5487 N.2       1 <0>        -0.5299
     22 C14         9.6110    2.4028    4.1495 C.2       1 <0>         0.1118
     23 C15         9.9085    1.4644    3.2009 C.2       1 <0>        -0.2311
     24 S2          8.2870    0.7741    2.8980 S.3       1 <0>         0.1434
     25 C16        10.6830    3.2504    4.7259 C.ar      1 <0>        -0.0172
     26 C17        12.0011    3.0983    4.2985 C.ar      1 <0>        -0.0563
     27 C18        12.9943    3.8895    4.8383 C.ar      1 <0>        -0.1128
     28 C19        12.6840    4.8325    5.8020 C.ar      1 <0>        -0.0532
     29 C20        11.3780    4.9875    6.2302 C.ar      1 <0>        -0.0489
     30 C21        10.3754    4.2058    5.6928 C.ar      1 <0>        -0.0269
     31 N6         11.0540    5.9982    7.2620 N.pl3     1 <0>         0.0324
     32 O2         11.9305    6.6872    7.7296 O.2       1 <0>        -0.1557
     33 O3          9.9128    6.1346    7.6371 O.3       1 <0>        -0.1543
     34 C22        -2.5102    0.1401    2.7978 C.3       1 <0>        -0.0692
     35 H2          1.0042    1.8801    0.0026 H         1 <0>         0.0804
     36 H3         -0.5455    1.8639   -0.8728 H         1 <0>         0.0788
     37 H4         -0.5286    1.8543    0.9071 H         1 <0>         0.0634
     38 H5         -0.0060   -0.1439   -2.1301 H         1 <0>         0.1365
     39 H6          0.0261   -2.6046   -2.1453 H         1 <0>         0.1348
     40 H7          0.0533   -3.8524   -0.0238 H         1 <0>         0.1367
     41 H8          0.0465   -2.6416    2.1187 H         1 <0>         0.1308
     42 H9          3.8148   -0.8269    5.2156 H         1 <0>         0.0770
     43 H10         4.0289    0.6749    6.1468 H         1 <0>         0.0778
     44 H11         2.4120    0.2116    5.5644 H         1 <0>         0.0950
     45 H12         5.6803    2.4397    4.9982 H         1 <0>         0.4329
     46 H13        10.8603    1.2077    2.7598 H         1 <0>         0.2037
     47 H14        12.2445    2.3623    3.5465 H         1 <0>         0.1464
     48 H15        14.0159    3.7723    4.5082 H         1 <0>         0.1533
     49 H16        13.4646    5.4496    6.2218 H         1 <0>         0.1559
     50 H17         9.3552    4.3310    6.0244 H         1 <0>         0.1623
     51 H18        -2.8368   -0.8105    3.2195 H         1 <0>         0.0899
     52 H19        -3.1205    0.9466    3.2041 H         1 <0>         0.0998
     53 H20        -2.6188    0.1131    1.7136 H         1 <0>         0.0800
@<TRIPOS>BOND
     1    1    2 1
     2    1   35 1
     3    1   36 1
     4    1   37 1
     5    2    7 ar
     6    2    3 ar
     7    3    4 ar
     8    3   38 1
     9    4    5 ar
    10    4   39 1
    11    5    6 ar
    12    5   40 1
    13    6    7 ar
    14    6   41 1
    15    7    8 1
    16    8   12 1
    17    8    9 1
    18    9   10 2
    19    9   34 1
    20   10   11 1
    21   11   12 2
    22   12   13 1
    23   13   14 1
    24   14   15 1
    25   14   16 1
    26   14   17 1
    27   16   42 1
    28   16   43 1
    29   16   44 1
    30   17   18 2
    31   17   19 am
    32   19   20 1
    33   19   45 1
    34   20   24 1
    35   20   21 2
    36   21   22 1
    37   22   23 2
    38   22   25 1
    39   23   24 1
    40   23   46 1
    41   25   30 ar
    42   25   26 ar
    43   26   27 ar
    44   26   47 1
    45   27   28 ar
    46   27   48 1
    47   28   29 ar
    48   28   49 1
    49   29   30 ar
    50   29   31 1
    51   30   50 1
    52   31   32 2
    53   31   33 1
    54   34   51 1
    55   34   52 1
    56   34   53 1
