@<TRIPOS>MOLECULE
ZINC60441722
   42    43     0     0     0
SMALL
USER_CHARGES

@<TRIPOS>ATOM
      1 C1         -4.2072    2.9667    4.8494 C.3       1 <0>        -0.1265
      2 C2         -3.7980    1.9128    3.8529 C.ar      1 <0>        -0.0133
      3 C3         -4.4760    1.7912    2.6574 C.ar      1 <0>        -0.1280
      4 C4         -4.1016    0.8244    1.7415 C.ar      1 <0>        -0.0827
      5 C5         -3.0458   -0.0267    2.0173 C.ar      1 <0>        -0.1334
      6 C6         -2.3593    0.0846    3.2085 C.ar      1 <0>        -0.0839
      7 C7         -2.7286    1.0615    4.1347 C.ar      1 <0>        -0.1377
      8 C8         -1.9936    1.1902    5.4110 C.2       1 <0>         0.5647
      9 O1         -2.2275    2.1219    6.1558 O.2       1 <0>        -0.5006
     10 N1         -1.0643    0.2744    5.7488 N.am      1 <0>        -0.5108
     11 N2         -0.3678    0.3963    6.9583 N.pl3     1 <0>        -0.8815
     12 S1         -0.4484   -0.8139    8.0858 S.o2      1 <0>         2.6967
     13 O2          0.5731   -0.5506    9.0378 O.2       1 <0>        -0.9240
     14 O3         -1.8161   -0.9386    8.4507 O.2       1 <0>        -0.9278
     15 C9         -0.0053   -2.3133    7.2733 C.ar      1 <0>        -0.6469
     16 C10        -0.9677   -3.2731    7.0205 C.ar      1 <0>        -0.0081
     17 C11        -0.6201   -4.4493    6.3832 C.ar      1 <0>        -0.0602
     18 C12         0.6900   -4.6657    5.9980 C.ar      1 <0>        -0.0233
     19 C13         1.6519   -3.7058    6.2499 C.ar      1 <0>        -0.0703
     20 C14         1.3034   -2.5274    6.8836 C.ar      1 <0>         0.0457
     21 N3          2.3326   -1.4972    7.1488 N.pl3     1 <0>         0.0195
     22 O4          3.4517   -1.8280    7.4649 O.2       1 <0>        -0.1102
     23 O5          2.0542   -0.3249    7.0493 O.3       1 <0>        -0.1506
     24 C15         1.0692   -5.9485    5.3040 C.3       1 <0>        -0.1306
     25 C16        -1.6690   -5.4959    6.1086 C.3       1 <0>        -0.1302
     26 H1         -3.5697    3.8432    4.7336 H         1 <0>         0.0800
     27 H2         -5.2460    3.2473    4.6754 H         1 <0>         0.0626
     28 H3         -4.1019    2.5717    5.8598 H         1 <0>         0.0948
     29 H4         -5.3012    2.4521    2.4362 H         1 <0>         0.1335
     30 H5         -4.6359    0.7331    0.8074 H         1 <0>         0.1305
     31 H6         -2.7590   -0.7799    1.2983 H         1 <0>         0.1304
     32 H7         -1.5355   -0.5802    3.4224 H         1 <0>         0.1222
     33 H8         -0.8777   -0.4692    5.1545 H         1 <0>         0.4138
     34 H9          0.1616    1.1896    7.1352 H         1 <0>         0.4382
     35 H10        -1.9911   -3.1040    7.3214 H         1 <0>         0.1684
     36 H11         2.6754   -3.8750    5.9494 H         1 <0>         0.1603
     37 H12         0.9647   -5.8232    4.2263 H         1 <0>         0.0909
     38 H13         2.1030   -6.1986    5.5422 H         1 <0>         0.0826
     39 H14         0.4140   -6.7516    5.6415 H         1 <0>         0.0883
     40 H15        -2.1179   -5.3130    5.1323 H         1 <0>         0.0897
     41 H16        -1.2078   -6.4835    6.1172 H         1 <0>         0.0853
     42 H17        -2.4399   -5.4483    6.8776 H         1 <0>         0.0826
@<TRIPOS>BOND
     1    1    2 1
     2    1   26 1
     3    1   27 1
     4    1   28 1
     5    2    7 ar
     6    2    3 ar
     7    3    4 ar
     8    3   29 1
     9    4    5 ar
    10    4   30 1
    11    5    6 ar
    12    5   31 1
    13    6    7 ar
    14    6   32 1
    15    7    8 1
    16    8    9 2
    17    8   10 am
    18   10   11 1
    19   10   33 1
    20   11   12 1
    21   11   34 1
    22   12   13 2
    23   12   14 2
    24   12   15 1
    25   15   20 ar
    26   15   16 ar
    27   16   17 ar
    28   16   35 1
    29   17   18 ar
    30   17   25 1
    31   18   19 ar
    32   18   24 1
    33   19   20 ar
    34   19   36 1
    35   20   21 1
    36   21   22 2
    37   21   23 1
    38   24   37 1
    39   24   38 1
    40   24   39 1
    41   25   40 1
    42   25   41 1
    43   25   42 1
