@<TRIPOS>MOLECULE
ZINC05042523
   37    39     0     0     0
SMALL
USER_CHARGES
4-hydroxy-2-[(4,6,7-trimethylquinazolin-2-yl)amino]-1H-pyrimidin-6-one
@<TRIPOS>ATOM
      1 C1          2.7042   -4.1372   -0.0484 C.3       1 <0>        -0.1229
      2 C2          2.5889   -2.6346   -0.0382 C.ar      1 <0>        -0.0829
      3 C3          1.3552   -2.0559   -0.0224 C.ar      1 <0>        -0.0608
      4 C4          1.2484   -0.6580   -0.0134 C.ar      1 <0>        -0.1814
      5 C5          0.0021   -0.0041    0.0020 C.ar      1 <0>         0.2954
      6 N1         -0.0158    1.3122    0.0093 N.ar      1 <0>        -0.5750
      7 C6          1.1090    2.0247    0.0023 C.ar      1 <0>         0.5604
      8 N2          2.3035    1.4680   -0.0121 N.ar      1 <0>        -0.5175
      9 C7          2.4253    0.1346   -0.0204 C.ar      1 <0>         0.2068
     10 C8          3.6774   -0.4965   -0.0362 C.ar      1 <0>        -0.1136
     11 C9          3.7448   -1.8575   -0.0446 C.ar      1 <0>        -0.0168
     12 C10         5.0919   -2.5329   -0.0617 C.3       1 <0>        -0.1291
     13 N3          1.0199    3.4090    0.0106 N.pl3     1 <0>        -0.6284
     14 C11        -0.2106    4.0177    0.0257 C.cat     1 <0>         0.6991
     15 N4         -0.2818    5.3762    0.0393 N.am      1 <0>        -0.6293
     16 H1          0.6407    5.9753    0.0422 H         1 <0>         0.4526
     17 C12        -1.4833    5.9906    0.0493 C.2       1 <0>         0.5343
     18 O1         -1.5578    7.2091    0.0570 O.2       1 <0>        -0.5448
     19 C13        -2.6431    5.2057    0.0562 C.2       1 <0>        -0.4469
     20 C14        -2.5138    3.8275    0.0471 C.2       1 <0>         0.4519
     21 N5         -1.2970    3.2749    0.0320 N.pl3     1 <0>        -0.5670
     22 O2         -3.6161    3.0422    0.0538 O.3       1 <0>        -0.6343
     23 C15        -1.2822   -0.7926    0.0106 C.3       1 <0>        -0.1377
     24 H2          1.6982   -4.5822   -0.0414 H         1 <0>         0.0730
     25 H3          3.2579   -4.4685    0.8425 H         1 <0>         0.0789
     26 H4          3.2406   -4.4576   -0.9537 H         1 <0>         0.0789
     27 H5          0.4664   -2.6695   -0.0169 H         1 <0>         0.1461
     28 H6          4.5827    0.0923   -0.0413 H         1 <0>         0.1481
     29 H7          5.8845   -1.7701   -0.0647 H         1 <0>         0.0752
     30 H8          5.1786   -3.1553   -0.9645 H         1 <0>         0.0836
     31 H9          5.1959   -3.1662    0.8316 H         1 <0>         0.0836
     32 H10         1.9352    4.0191    0.0051 H         1 <0>         0.4847
     33 H11        -3.6197    5.6668    0.0687 H         1 <0>         0.1567
     34 H12        -2.1372   -0.1006    0.0224 H         1 <0>         0.1024
     35 H13        -1.3146   -1.4308    0.9060 H         1 <0>         0.1097
     36 H14        -1.3321   -1.4219   -0.8902 H         1 <0>         0.1097
     37 H15        -1.2134    2.1781    0.0248 H         1 <0>         0.4571
@<TRIPOS>BOND
     1    1    2 1
     2    1   24 1
     3    1   25 1
     4    1   26 1
     5    2   11 ar
     6    2    3 ar
     7    3    4 ar
     8    3   27 1
     9    4    9 ar
    10    4    5 ar
    11    5    6 ar
    12    5   23 1
    13    6    7 ar
    14    7    8 ar
    15    7   13 1
    16    8    9 ar
    17    9   10 ar
    18   10   11 ar
    19   10   28 1
    20   11   12 1
    21   12   29 1
    22   12   30 1
    23   12   31 1
    24   13   14 1
    25   13   32 1
    26   14   21 2
    27   14   15 1
    28   15   16 1
    29   15   17 am
    30   17   18 2
    31   17   19 1
    32   19   20 2
    33   19   33 1
    34   20   21 1
    35   20   22 1
    36   21   37 1
    37   23   34 1
    38   23   35 1
    39   23   36 1
