@<TRIPOS>MOLECULE
ZINC14864938
   60    62     0     0     0
SMALL
USER_CHARGES

@<TRIPOS>ATOM
      1 C1         -0.8111    1.1212    1.9184 C.3       1 <0>        -0.1841
      2 C2         -0.7197   -0.3699    1.5878 C.3       1 <0>         0.0700
      3 H1         -0.2942   -0.9049    2.4369 H         1 <0>         0.1079
      4 C3         -2.0979   -0.9052    1.2964 C.2       1 <0>         0.5150
      5 O1         -2.3681   -1.3126    0.1863 O.2       1 <0>        -0.4833
      6 N1         -3.0304   -0.9313    2.2692 N.am      1 <0>        -0.6553
      7 C4         -4.2719   -1.5367    2.0336 C.ar      1 <0>         0.1019
      8 C5         -4.4185   -2.4404    0.9913 C.ar      1 <0>        -0.0071
      9 C6         -5.6438   -3.0365    0.7612 C.ar      1 <0>        -0.6949
     10 C7         -6.7259   -2.7342    1.5673 C.ar      1 <0>         0.0041
     11 C8         -6.5875   -1.8346    2.6078 C.ar      1 <0>        -0.2088
     12 C9         -5.3609   -1.2370    2.8488 C.ar      1 <0>         0.1616
     13 O2         -5.2218   -0.3562    3.8753 O.3       1 <0>        -0.3086
     14 C10        -6.3530   -0.1705    4.7286 C.3       1 <0>         0.0769
     15 C11        -5.8854    0.3492    6.0896 C.3       1 <0>        -0.1498
     16 C12        -7.3079    0.8438    4.0961 C.3       1 <0>        -0.1853
     17 S1         -5.8279   -4.1841   -0.5631 S.o2      1 <0>         2.6921
     18 O3         -7.2066   -4.1892   -0.9073 O.2       1 <0>        -0.9513
     19 O4         -4.8084   -3.8832   -1.5060 O.2       1 <0>        -0.9422
     20 N2         -5.4854   -5.6876    0.0408 N.pl3     1 <0>        -1.0006
     21 C13        -4.1129   -6.2178    0.0193 C.3       1 <0>         0.0846
     22 C14        -3.7670   -6.7212    1.4254 C.3       1 <0>         0.0472
     23 O5         -4.7876   -7.6190    1.8682 O.3       1 <0>        -0.3743
     24 C15        -6.0800   -7.0206    1.9921 C.3       1 <0>         0.0467
     25 C16        -6.5434   -6.5303    0.6202 C.3       1 <0>         0.0849
     26 O6          0.1147   -0.5536    0.4424 O.3       1 <0>        -0.2773
     27 C17         1.4561   -0.5574    0.6513 C.ar      1 <0>         0.1601
     28 C18         1.9611   -0.2824    1.9164 C.ar      1 <0>        -0.2165
     29 C19         3.3213   -0.2856    2.1328 C.ar      1 <0>        -0.0262
     30 C20         4.1940   -0.5660    1.0778 C.ar      1 <0>        -0.0671
     31 C21         3.6819   -0.8421   -0.1929 C.ar      1 <0>        -0.0267
     32 C22         2.3201   -0.8420   -0.3993 C.ar      1 <0>        -0.1459
     33 C23         5.6089   -0.5700    1.2981 C.1       1 <0>         0.2538
     34 N3          6.7314   -0.5732    1.4729 N.1       1 <0>        -0.4164
     35 H2          0.1858    1.5084    2.1292 H         1 <0>         0.0850
     36 H3         -1.2366    1.6561    1.0693 H         1 <0>         0.0809
     37 H4         -1.4476    1.2613    2.7921 H         1 <0>         0.0819
     38 H5         -2.8420   -0.5311    3.1324 H         1 <0>         0.4188
     39 H6         -3.5752   -2.6778    0.3597 H         1 <0>         0.1773
     40 H7         -7.6818   -3.2019    1.3834 H         1 <0>         0.1446
     41 H8         -7.4347   -1.6004    3.2354 H         1 <0>         0.1465
     42 H9         -6.8686   -1.1217    4.8605 H         1 <0>         0.0787
     43 H10        -5.3697    1.3004    5.9576 H         1 <0>         0.0694
     44 H11        -6.7482    0.4908    6.7404 H         1 <0>         0.0821
     45 H12        -5.2050   -0.3735    6.5402 H         1 <0>         0.0667
     46 H13        -7.6411    0.4736    3.1265 H         1 <0>         0.0654
     47 H14        -8.1707    0.9855    4.7469 H         1 <0>         0.0777
     48 H15        -6.7923    1.7951    3.9641 H         1 <0>         0.0704
     49 H16        -4.0486   -7.0416   -0.6916 H         1 <0>         0.0873
     50 H17        -3.4188   -5.4284   -0.2690 H         1 <0>         0.1006
     51 H18        -2.8097   -7.2419    1.4004 H         1 <0>         0.1086
     52 H19        -3.7043   -5.8751    2.1098 H         1 <0>         0.0551
     53 H20        -6.7869   -7.7568    2.3749 H         1 <0>         0.1087
     54 H21        -6.0258   -6.1757    2.6785 H         1 <0>         0.0553
     55 H22        -7.4581   -5.9477    0.7295 H         1 <0>         0.0996
     56 H23        -6.7280   -7.3861   -0.0292 H         1 <0>         0.0864
     57 H24         1.2860   -0.0654    2.7310 H         1 <0>         0.1406
     58 H25         3.7129   -0.0714    3.1162 H         1 <0>         0.1376
     59 H26         4.3528   -1.0589   -1.0110 H         1 <0>         0.1430
     60 H27         1.9233   -1.0596   -1.3799 H         1 <0>         0.1465
@<TRIPOS>BOND
     1    1    2 1
     2    1   35 1
     3    1   36 1
     4    1   37 1
     5    2    3 1
     6    2    4 1
     7    2   26 1
     8    4    5 2
     9    4    6 am
    10    6    7 1
    11    6   38 1
    12    7   12 ar
    13    7    8 ar
    14    8    9 ar
    15    8   39 1
    16    9   10 ar
    17    9   17 1
    18   10   11 ar
    19   10   40 1
    20   11   12 ar
    21   11   41 1
    22   12   13 1
    23   13   14 1
    24   14   15 1
    25   14   16 1
    26   14   42 1
    27   15   43 1
    28   15   44 1
    29   15   45 1
    30   16   46 1
    31   16   47 1
    32   16   48 1
    33   17   18 2
    34   17   19 2
    35   17   20 1
    36   20   25 1
    37   20   21 1
    38   21   22 1
    39   21   49 1
    40   21   50 1
    41   22   23 1
    42   22   51 1
    43   22   52 1
    44   23   24 1
    45   24   25 1
    46   24   53 1
    47   24   54 1
    48   25   55 1
    49   25   56 1
    50   26   27 1
    51   27   32 ar
    52   27   28 ar
    53   28   29 ar
    54   28   57 1
    55   29   30 ar
    56   29   58 1
    57   30   31 ar
    58   30   33 1
    59   31   32 ar
    60   31   59 1
    61   32   60 1
    62   33   34 3
