@<TRIPOS>MOLECULE
ZINC43419357
   44    44     0     0     0
SMALL
USER_CHARGES

@<TRIPOS>ATOM
      1 C1          0.6908    1.1181    0.2112 C.3       1 <0>        -0.1454
      2 C2          0.7840   -0.3768    0.0449 C.2       1 <0>         0.2206
      3 C3          0.6057   -1.0641   -1.1070 C.2       1 <0>        -0.8207
      4 C4          0.7794   -2.4237   -0.8282 C.2       1 <0>         0.1694
      5 N1          1.0521   -2.5482    0.4453 N.2       1 <0>        -0.2896
      6 N2          1.0659   -1.2694    1.0170 N.pl3     1 <0>        -0.4614
      7 H1          1.2444   -1.0622    1.9477 H         1 <0>         0.4424
      8 C5          0.6703   -3.5506   -1.8229 C.3       1 <0>        -0.1121
      9 S1          0.2220   -0.3691   -2.6800 S.o2      1 <0>         2.7205
     10 O1         -0.4096   -1.3947   -3.4340 O.2       1 <0>        -0.9521
     11 O2         -0.3985    0.8846   -2.4297 O.2       1 <0>        -0.9603
     12 N3          1.6594   -0.0434   -3.4352 N.pl3     1 <0>        -0.9946
     13 C6          2.2895   -1.0603   -4.2808 C.3       1 <0>         0.1295
     14 C7          1.8756   -0.8404   -5.7372 C.3       1 <0>        -0.0869
     15 C8          2.5237   -1.8865   -6.6070 C.2       1 <0>         0.3748
     16 N4          3.2927   -2.7800   -6.0786 N.2       1 <0>        -0.4262
     17 O3          3.9017   -3.7629   -6.8959 O.3       1 <0>        -0.4286
     18 N5          2.2963   -1.8900   -7.9653 N.pl3     1 <0>        -0.8716
     19 C9          2.3008    1.2617   -3.2576 C.3       1 <0>         0.1149
     20 C10         3.3068    1.1833   -2.1075 C.3       1 <0>        -0.1230
     21 C11         4.4214    0.2002   -2.4710 C.3       1 <0>        -0.1498
     22 C12         3.9086    2.5682   -1.8611 C.3       1 <0>        -0.1494
     23 H2          1.6704    1.5645    0.0400 H         1 <0>         0.0991
     24 H3         -0.0224    1.5200   -0.5086 H         1 <0>         0.1273
     25 H4          0.3570    1.3511    1.2223 H         1 <0>         0.0868
     26 H5          1.6470   -3.7366   -2.2697 H         1 <0>         0.0878
     27 H6          0.3256   -4.4513   -1.3150 H         1 <0>         0.0834
     28 H7         -0.0405   -3.2789   -2.6033 H         1 <0>         0.1117
     29 H8          3.3734   -0.9831   -4.1954 H         1 <0>         0.1001
     30 H9          1.9693   -2.0508   -3.9576 H         1 <0>         0.0930
     31 H10         0.7917   -0.9177   -5.8225 H         1 <0>         0.1029
     32 H11         2.1958    0.1501   -6.0603 H         1 <0>         0.0991
     33 H12         4.4587   -4.3874   -6.4112 H         1 <0>         0.3989
     34 H13         1.7189   -1.2192   -8.3621 H         1 <0>         0.3975
     35 H14         2.7135   -2.5634   -8.5252 H         1 <0>         0.4076
     36 H15         2.8191    1.5396   -4.1754 H         1 <0>         0.0882
     37 H16         1.5431    2.0106   -3.0272 H         1 <0>         0.0964
     38 H17         2.8007    0.8412   -1.2048 H         1 <0>         0.0701
     39 H18         5.2023    0.2394   -1.7116 H         1 <0>         0.0527
     40 H19         4.0134   -0.8094   -2.5208 H         1 <0>         0.0617
     41 H20         4.8425    0.4702   -3.4394 H         1 <0>         0.0579
     42 H21         3.1146    3.2686   -1.6021 H         1 <0>         0.0594
     43 H22         4.6253    2.5123   -1.0417 H         1 <0>         0.0578
     44 H23         4.4148    2.9103   -2.7638 H         1 <0>         0.0599
@<TRIPOS>BOND
     1    1    2 1
     2    1   23 1
     3    1   24 1
     4    1   25 1
     5    2    6 1
     6    2    3 2
     7    3    4 1
     8    3    9 1
     9    4    5 2
    10    4    8 1
    11    5    6 1
    12    6    7 1
    13    8   26 1
    14    8   27 1
    15    8   28 1
    16    9   10 2
    17    9   11 2
    18    9   12 1
    19   12   13 1
    20   12   19 1
    21   13   14 1
    22   13   29 1
    23   13   30 1
    24   14   15 1
    25   14   31 1
    26   14   32 1
    27   15   16 2
    28   15   18 1
    29   16   17 1
    30   17   33 1
    31   18   34 1
    32   18   35 1
    33   19   20 1
    34   19   36 1
    35   19   37 1
    36   20   21 1
    37   20   22 1
    38   20   38 1
    39   21   39 1
    40   21   40 1
    41   21   41 1
    42   22   42 1
    43   22   43 1
    44   22   44 1
