@<TRIPOS>MOLECULE
ZINC22915451
   61    64     0     0     0
SMALL
USER_CHARGES
2-[4-[2-(cyclopropylamino)-2-oxo-ethyl]piperazin-1-yl]-N-[(3S)-1,1-dioxothiolan-3-yl]-N-phenyl-acetamide
@<TRIPOS>ATOM
      1 C1         -1.5270   10.5414   -3.2234 C.ar      1 <0>        -0.1331
      2 C2         -1.2361    9.8160   -2.0826 C.ar      1 <0>        -0.0949
      3 C3         -1.2532    8.4354   -2.1173 C.ar      1 <0>        -0.1621
      4 C4         -1.5629    7.7758   -3.2995 C.ar      1 <0>         0.1364
      5 C5         -1.8490    8.5072   -4.4448 C.ar      1 <0>        -0.1705
      6 C6         -1.8354    9.8876   -4.4022 C.ar      1 <0>        -0.0887
      7 N1         -1.5811    6.3772   -3.3379 N.am      1 <0>        -0.5365
      8 C7         -2.0583    5.6835   -4.5368 C.3       1 <0>         0.1293
      9 H1         -2.0687    4.6087   -4.3029 H         1 <0>         0.1198
     10 C8         -3.4773    6.1688   -4.8766 C.3       1 <0>        -0.1653
     11 C9         -3.8327    5.6645   -6.3045 C.3       1 <0>        -0.5787
     12 S1         -2.2300    5.9445   -7.1694 S.o2      1 <0>         2.3843
     13 O1         -2.2487    7.2311   -7.7724 O.2       1 <0>        -0.9158
     14 O2         -1.9264    4.8050   -7.9623 O.2       1 <0>        -0.9223
     15 C10        -1.1022    5.9807   -5.7171 C.3       1 <0>        -0.6265
     16 C11        -1.1597    5.6682   -2.2720 C.2       1 <0>         0.5194
     17 O3         -0.8500    6.2393   -1.2478 O.2       1 <0>        -0.4932
     18 C12        -1.0733    4.1658   -2.3527 C.3       1 <0>         0.0283
     19 N2         -0.5446    3.6371   -1.0882 N.3       1 <0>        -0.5226
     20 C13        -0.2231    2.2082   -1.2083 C.3       1 <0>         0.0289
     21 C14         0.3972    1.7158    0.1014 C.3       1 <0>        -0.0047
     22 N3         -0.5442    1.9499    1.2052 N.4       1 <0>        -0.3897
     23 C15        -0.8661    3.3788    1.3250 C.3       1 <0>         0.0047
     24 C16        -1.4864    3.8712    0.0153 C.3       1 <0>         0.0165
     25 C17        -0.0150    1.4213    2.4695 C.3       1 <0>        -0.0262
     26 C18         0.0707   -0.0811    2.3892 C.2       1 <0>         0.5030
     27 O4         -0.2746   -0.6550    1.3780 O.2       1 <0>        -0.5381
     28 N4          0.5310   -0.7870    3.4410 N.am      1 <0>        -0.7069
     29 C19         0.6142   -2.2476    3.3629 C.3       1 <0>        -0.0295
     30 C20         0.1382   -3.0482    4.5766 C.3       1 <0>        -0.1312
     31 C21         1.6328   -2.9464    4.2657 C.3       1 <0>        -0.1258
     32 H2         -1.5130   11.6209   -3.1937 H         1 <0>         0.1274
     33 H3         -0.9950   10.3295   -1.1636 H         1 <0>         0.1280
     34 H4         -1.0256    7.8694   -1.2261 H         1 <0>         0.1802
     35 H5         -2.0859    7.9971   -5.3668 H         1 <0>         0.1236
     36 H6         -2.0618   10.4570   -5.2915 H         1 <0>         0.1340
     37 H7         -4.1893    5.7621   -4.1433 H         1 <0>         0.1096
     38 H8         -3.5063    7.2680   -4.8452 H         1 <0>         0.1137
     39 H9         -4.1308    4.6068   -6.2561 H         1 <0>         0.1484
     40 H10        -4.6638    6.2616   -6.7080 H         1 <0>         0.1557
     41 H11        -0.6311    6.9636   -5.5688 H         1 <0>         0.1603
     42 H12        -0.3242    5.2044   -5.7632 H         1 <0>         0.1550
     43 H13        -2.0756    3.7501   -2.5334 H         1 <0>         0.0843
     44 H14        -0.4039    3.8808   -3.1777 H         1 <0>         0.1253
     45 H15        -1.1429    1.6416   -1.4153 H         1 <0>         0.0667
     46 H16         0.4913    2.0610   -2.0317 H         1 <0>         0.1269
     47 H17         0.6120    0.6398    0.0236 H         1 <0>         0.1510
     48 H18         1.3318    2.2633    0.2931 H         1 <0>         0.1335
     49 H19        -1.5807    3.5259    2.1482 H         1 <0>         0.1385
     50 H20         0.0535    3.9457    1.5321 H         1 <0>         0.1403
     51 H21        -1.7012    4.9473    0.0920 H         1 <0>         0.1433
     52 H22        -2.4207    3.3237   -0.1777 H         1 <0>         0.0598
     53 H23         0.9875    1.8366    2.6495 H         1 <0>         0.1580
     54 H24        -0.6838    1.7068    3.2949 H         1 <0>         0.1609
     55 H25         0.8442   -0.2665    4.3581 H         1 <0>         0.4196
     56 H26         0.3889   -2.2286    2.2864 H         1 <0>         0.1559
     57 H27        -0.4121   -2.3851    5.2603 H         1 <0>         0.1068
     58 H28        -0.5232   -3.8614    4.2430 H         1 <0>         0.1152
     59 H29         2.2070   -3.6754    3.6750 H         1 <0>         0.1166
     60 H30         2.3181   -2.1992    4.6924 H         1 <0>         0.1078
     61 H31        -1.4752    1.4099    0.9780 H         1 <0>         0.4455
@<TRIPOS>BOND
     1    1    6 ar
     2    1    2 ar
     3    1   32 1
     4    2    3 ar
     5    2   33 1
     6    3    4 ar
     7    3   34 1
     8    4    5 ar
     9    4    7 1
    10    5    6 ar
    11    5   35 1
    12    6   36 1
    13    7    8 1
    14    7   16 am
    15    8    9 1
    16    8   15 1
    17    8   10 1
    18   10   11 1
    19   10   37 1
    20   10   38 1
    21   11   12 1
    22   11   39 1
    23   11   40 1
    24   12   13 2
    25   12   14 2
    26   12   15 1
    27   15   41 1
    28   15   42 1
    29   16   17 2
    30   16   18 1
    31   18   19 1
    32   18   43 1
    33   18   44 1
    34   19   24 1
    35   19   20 1
    36   20   21 1
    37   20   45 1
    38   20   46 1
    39   21   22 1
    40   21   47 1
    41   21   48 1
    42   22   23 1
    43   22   25 1
    44   22   61 1
    45   23   24 1
    46   23   49 1
    47   23   50 1
    48   24   51 1
    49   24   52 1
    50   25   26 1
    51   25   53 1
    52   25   54 1
    53   26   27 2
    54   26   28 am
    55   28   29 1
    56   28   55 1
    57   29   31 1
    58   29   30 1
    59   29   56 1
    60   30   31 1
    61   30   57 1
    62   30   58 1
    63   31   59 1
    64   31   60 1
