@<TRIPOS>MOLECULE
ZINC52569976
   50    53     0     0     0
SMALL
USER_CHARGES

@<TRIPOS>ATOM
      1 C1         -0.0184    1.5028    0.0103 C.3       1 <0>        -0.1298
      2 C2          0.0021   -0.0041    0.0020 C.2       1 <0>         0.3247
      3 N1          0.0047   -0.6130   -1.1587 N.2       1 <0>        -0.5817
      4 C3          0.0118   -1.9417   -1.2881 C.2       1 <0>         0.5232
      5 O1          0.0326   -2.4618   -2.3860 O.2       1 <0>        -0.4287
      6 C4         -0.0064   -2.7837   -0.0277 C.3       1 <0>        -0.1845
      7 H1         -0.8735   -3.4437   -0.0511 H         1 <0>         0.1567
      8 C5          1.2688   -3.6324   -0.0326 C.3       1 <0>         0.1005
      9 H2          2.1259   -2.9974   -0.2567 H         1 <0>         0.0984
     10 C6          1.4594   -4.2725    1.3147 C.2       1 <0>        -0.2698
     11 C7          0.8857   -3.7972    2.4419 C.2       1 <0>         0.4419
     12 O2          0.0778   -2.7106    2.4302 O.3       1 <0>        -0.2294
     13 C8         -0.0000   -2.0137    1.2829 C.2       1 <0>         0.1789
     14 C9          0.0228   -0.6666    1.2322 C.2       1 <0>        -0.2208
     15 N2          1.1287   -4.4344    3.6334 N.pl3     1 <0>        -0.8245
     16 C10         2.2855   -5.4385    1.4071 C.1       1 <0>         0.2728
     17 N3          2.9409   -6.3635    1.4805 N.1       1 <0>        -0.4412
     18 C11         1.1521   -4.7058   -1.0839 C.2       1 <0>        -0.2582
     19 C12         2.0428   -4.7713   -2.0966 C.2       1 <0>         0.2027
     20 N4          1.9221   -5.7524   -3.0428 N.am      1 <0>        -0.5225
     21 C13         0.9242   -6.6521   -2.9737 C.2       1 <0>         0.7009
     22 O3          0.8355   -7.5154   -3.8253 O.2       1 <0>        -0.5177
     23 N5          0.0230   -6.6103   -1.9748 N.am      1 <0>        -0.6573
     24 H3         -0.6900   -7.2671   -1.9397 H         1 <0>         0.4321
     25 C14         0.1106   -5.6627   -1.0196 C.2       1 <0>         0.5654
     26 O4         -0.7013   -5.6272   -0.1127 O.2       1 <0>        -0.5065
     27 C15         2.8884   -5.8235   -4.1417 C.3       1 <0>         0.3046
     28 H4          3.5649   -4.9695   -4.1069 H         1 <0>         0.1198
     29 C16         3.6860   -7.1446   -4.0718 C.3       1 <0>        -0.1944
     30 C17         3.8689   -7.5514   -5.5511 C.3       1 <0>         0.0855
     31 H5          3.3928   -8.5126   -5.7446 H         1 <0>         0.0837
     32 C18         3.1602   -6.4278   -6.3397 C.3       1 <0>         0.0914
     33 H6          3.8786   -5.6666   -6.6441 H         1 <0>         0.0954
     34 O5          2.2027   -5.8703   -5.4119 O.3       1 <0>        -0.3418
     35 C19         2.4465   -7.0049   -7.5639 C.3       1 <0>         0.0855
     36 O6          1.8970   -5.9392   -8.3412 O.3       1 <0>        -0.5655
     37 O7          5.2566   -7.6046   -5.8879 O.3       1 <0>        -0.5558
     38 H7          1.0042    1.8801    0.0026 H         1 <0>         0.1017
     39 H8         -0.5455    1.8639   -0.8728 H         1 <0>         0.0948
     40 H9         -0.5286    1.8543    0.9071 H         1 <0>         0.0905
     41 H10         0.0314   -0.0955    2.1488 H         1 <0>         0.1619
     42 H11         1.7051   -5.2142    3.6576 H         1 <0>         0.4276
     43 H12         0.7240   -4.1048    4.4510 H         1 <0>         0.4143
     44 H13         2.8463   -4.0524   -2.1598 H         1 <0>         0.1779
     45 H14         4.6540   -6.9818   -3.5980 H         1 <0>         0.1000
     46 H15         3.1194   -7.9048   -3.5340 H         1 <0>         0.0967
     47 H16         3.1587   -7.5661   -8.1687 H         1 <0>         0.0679
     48 H17         1.6449   -7.6678   -7.2381 H         1 <0>         0.0603
     49 H18         1.4288   -6.2322   -9.1350 H         1 <0>         0.3843
     50 H19         5.7604   -8.2537   -5.3781 H         1 <0>         0.3878
@<TRIPOS>BOND
     1    1    2 1
     2    1   38 1
     3    1   39 1
     4    1   40 1
     5    2   14 1
     6    2    3 2
     7    3    4 1
     8    4    5 2
     9    4    6 1
    10    6    7 1
    11    6   13 1
    12    6    8 1
    13    8    9 1
    14    8   10 1
    15    8   18 1
    16   10   11 2
    17   10   16 1
    18   11   12 1
    19   11   15 1
    20   12   13 1
    21   13   14 2
    22   14   41 1
    23   15   42 1
    24   15   43 1
    25   16   17 3
    26   18   25 1
    27   18   19 2
    28   19   20 1
    29   19   44 1
    30   20   21 am
    31   20   27 1
    32   21   22 2
    33   21   23 am
    34   23   24 1
    35   23   25 am
    36   25   26 2
    37   27   28 1
    38   27   34 1
    39   27   29 1
    40   29   30 1
    41   29   45 1
    42   29   46 1
    43   30   31 1
    44   30   32 1
    45   30   37 1
    46   32   33 1
    47   32   34 1
    48   32   35 1
    49   35   36 1
    50   35   47 1
    51   35   48 1
    52   36   49 1
    53   37   50 1
