@<TRIPOS>MOLECULE
ZINC42135937
   44    45     0     0     0
SMALL
USER_CHARGES

@<TRIPOS>ATOM
      1 C1         -0.6660   -1.7973   -1.3908 C.3       1 <0>        -0.1761
      2 C2         -0.8137   -0.3544   -0.9038 C.3       1 <0>        -0.0913
      3 C3         -0.6859    0.6006   -2.0924 C.3       1 <0>        -0.1754
      4 C4         -2.1854   -0.1745   -0.2504 C.3       1 <0>        -0.1426
      5 C5          0.2824   -0.0463    0.1182 C.3       1 <0>        -0.1266
      6 C6          1.6099    0.1765   -0.6093 C.3       1 <0>         0.0596
      7 C7          1.6157    1.5680   -1.2452 C.3       1 <0>        -0.2339
      8 C8          2.7635    0.0675    0.3899 C.3       1 <0>        -0.1955
      9 N1          1.7712   -0.8411   -1.6564 N.4       1 <0>        -0.4967
     10 C9          3.0524   -0.6360   -2.3452 C.3       1 <0>         0.0354
     11 H1          3.1832   -1.3762   -3.1346 H         1 <0>         0.1860
     12 C10         4.1986   -0.7018   -1.3624 C.ar      1 <0>        -0.1861
     13 C11         4.8208    0.5396   -1.4039 C.ar      1 <0>         0.1764
     14 C12         5.9262    0.7677   -0.5868 C.ar      1 <0>        -0.1224
     15 C13         6.3887   -0.2289    0.2479 C.ar      1 <0>        -0.0364
     16 C14         5.7613   -1.4603    0.2813 C.ar      1 <0>        -0.1146
     17 C15         4.6624   -1.6957   -0.5290 C.ar      1 <0>         0.0210
     18 Cl1         3.8703   -3.2400   -0.4928 Cl        1 <0>        -0.0414
     19 N2          4.1741    1.3730   -2.3172 N.am      1 <0>        -0.6479
     20 C16         3.1307    0.7651   -2.9135 C.2       1 <0>         0.5467
     21 O1          2.3927    1.2469   -3.7467 O.2       1 <0>        -0.4502
     22 H2          0.2127   -1.8766   -2.0308 H         1 <0>         0.0287
     23 H3         -0.5520   -2.4603   -0.5332 H         1 <0>         0.0832
     24 H4         -1.5536   -2.0829   -1.9553 H         1 <0>         0.0930
     25 H5         -1.6384    0.6540   -2.6196 H         1 <0>         0.0854
     26 H6         -0.4131    1.5930   -1.7334 H         1 <0>         0.0893
     27 H7          0.0850    0.2351   -2.7708 H         1 <0>         0.0410
     28 H8         -2.2765   -0.8549    0.5964 H         1 <0>         0.0667
     29 H9         -2.2906    0.8534    0.0965 H         1 <0>         0.0676
     30 H10        -2.9663   -0.3940   -0.9785 H         1 <0>         0.0699
     31 H11         0.0178    0.8527    0.6749 H         1 <0>         0.1167
     32 H12         0.3822   -0.8845    0.8077 H         1 <0>         0.0967
     33 H13         0.9897    2.2390   -0.6569 H         1 <0>         0.1111
     34 H14         2.6356    1.9516   -1.2706 H         1 <0>         0.0914
     35 H15         1.2259    1.5049   -2.2611 H         1 <0>         0.1134
     36 H16         3.0503   -0.9782    0.5010 H         1 <0>         0.0833
     37 H17         3.6155    0.6412    0.0251 H         1 <0>         0.0966
     38 H18         2.4464    0.4618    1.3553 H         1 <0>         0.1015
     39 H19         1.7575   -1.7592   -1.2381 H         1 <0>         0.4293
     40 H20         6.4219    1.7271   -0.6066 H         1 <0>         0.1528
     41 H21         7.2457   -0.0457    0.8791 H         1 <0>         0.1602
     42 H22         6.1274   -2.2370    0.9364 H         1 <0>         0.1587
     43 H23         4.4452    2.2857   -2.5023 H         1 <0>         0.4386
     44 H24         1.0158   -0.7628   -2.3207 H         1 <0>         0.4370
@<TRIPOS>BOND
     1    1    2 1
     2    1   22 1
     3    1   23 1
     4    1   24 1
     5    2    3 1
     6    2    4 1
     7    2    5 1
     8    3   25 1
     9    3   26 1
    10    3   27 1
    11    4   28 1
    12    4   29 1
    13    4   30 1
    14    5    6 1
    15    5   31 1
    16    5   32 1
    17    6    7 1
    18    6    8 1
    19    6    9 1
    20    7   33 1
    21    7   34 1
    22    7   35 1
    23    8   36 1
    24    8   37 1
    25    8   38 1
    26    9   10 1
    27    9   39 1
    28    9   44 1
    29   10   11 1
    30   10   20 1
    31   10   12 1
    32   12   17 ar
    33   12   13 ar
    34   13   14 ar
    35   13   19 1
    36   14   15 ar
    37   14   40 1
    38   15   16 ar
    39   15   41 1
    40   16   17 ar
    41   16   42 1
    42   17   18 1
    43   19   20 am
    44   19   43 1
    45   20   21 2
