@<TRIPOS>MOLECULE
ZINC39994220
   66    69     0     0     0
SMALL
USER_CHARGES

@<TRIPOS>ATOM
      1 C1          0.9097    1.2742    0.0033 C.3       1 <0>        -0.0969
      2 C2          0.6405   -0.2084    0.0238 C.2       1 <0>        -0.1117
      3 C3          0.6826   -0.9297   -1.1329 C.2       1 <0>        -0.0243
      4 C4          0.4299   -2.3074   -1.0974 C.2       1 <0>        -0.1653
      5 C5          0.1466   -2.9146    0.0772 C.2       1 <0>         0.1039
      6 N1          0.1017   -2.2020    1.2382 N.am      1 <0>        -0.4311
      7 C6          0.3499   -0.8581    1.2363 C.2       1 <0>         0.4349
      8 N2          0.3167   -0.1434    2.3625 N.2       1 <0>        -0.5727
      9 C7          0.0487   -0.7006    3.5330 C.2       1 <0>         0.5159
     10 C8         -0.2111   -2.0937    3.6000 C.2       1 <0>        -0.4050
     11 C9         -0.1848   -2.8405    2.3933 C.2       1 <0>         0.5386
     12 O1         -0.4017   -4.0391    2.4016 O.2       1 <0>        -0.5125
     13 C10        -0.4989   -2.7157    4.8270 C.2       1 <0>         0.1513
     14 C11         0.3670   -3.6723    5.3405 C.2       1 <0>        -0.1512
     15 C12         1.6099   -3.9402    4.6817 C.1       1 <0>         0.2565
     16 N3          2.5960   -4.1527    4.1592 N.1       1 <0>        -0.4169
     17 C13         0.0085   -4.4079    6.5570 C.2       1 <0>         0.5794
     18 O2         -1.0480   -4.1802    7.1169 O.2       1 <0>        -0.5110
     19 N4          0.8489   -5.3363    7.0553 N.am      1 <0>        -0.6696
     20 C14         0.5536   -5.9680    8.2675 C.ar      1 <0>         0.1413
     21 C15         1.5771   -6.3054    9.1440 C.ar      1 <0>        -0.1452
     22 C16         1.2822   -6.9291   10.3401 C.ar      1 <0>        -0.0984
     23 C17        -0.0306   -7.2179   10.6659 C.ar      1 <0>        -0.1004
     24 C18        -1.0517   -6.8834    9.7957 C.ar      1 <0>        -0.0692
     25 C19        -0.7639   -6.2542    8.6002 C.ar      1 <0>        -0.1138
     26 C20        -2.4806   -7.2005   10.1546 C.3       1 <0>        -0.1174
     27 C21        -0.3488   -7.8991   11.9720 C.3       1 <0>        -0.1165
     28 N5          0.0228    0.0651    4.6757 N.pl3     1 <0>        -0.6014
     29 C22         0.5736   -0.4464    5.9399 C.3       1 <0>         0.1235
     30 C23         1.5441    0.5960    6.5052 C.3       1 <0>         0.0425
     31 N6          0.8613    1.8929    6.6048 N.3       1 <0>        -0.5260
     32 C24         0.4586    2.3861    5.2810 C.3       1 <0>         0.0361
     33 C25        -0.5509    1.4194    4.6640 C.3       1 <0>         0.1333
     34 C26         1.7003    2.8776    7.3007 C.3       1 <0>         0.0545
     35 C27         0.8728    4.1277    7.6060 C.3       1 <0>         0.0798
     36 O3         -0.1667    3.7972    8.5292 O.3       1 <0>        -0.5583
     37 H1          1.9762    1.4518    0.1420 H         1 <0>         0.0770
     38 H2          0.5942    1.6876   -0.9546 H         1 <0>         0.0747
     39 H3          0.3536    1.7557    0.8077 H         1 <0>         0.0847
     40 H4          0.9088   -0.4423   -2.0697 H         1 <0>         0.1565
     41 H5          0.4612   -2.8851   -2.0094 H         1 <0>         0.1639
     42 H6         -0.0469   -3.9769    0.0956 H         1 <0>         0.1845
     43 H7         -1.3934   -2.4497    5.3706 H         1 <0>         0.1544
     44 H8          1.6585   -5.5664    6.5731 H         1 <0>         0.4090
     45 H9          2.6025   -6.0805    8.8900 H         1 <0>         0.1235
     46 H10         2.0775   -7.1920   11.0219 H         1 <0>         0.1258
     47 H11        -1.5623   -5.9892    7.9229 H         1 <0>         0.1411
     48 H12        -2.9138   -6.3604   10.6975 H         1 <0>         0.0729
     49 H13        -3.0529   -7.3787    9.2442 H         1 <0>         0.0664
     50 H14        -2.5086   -8.0916   10.7816 H         1 <0>         0.0710
     51 H15        -0.5138   -7.1469   12.7433 H         1 <0>         0.0700
     52 H16        -1.2479   -8.5044   11.8565 H         1 <0>         0.0702
     53 H17         0.4853   -8.5388   12.2607 H         1 <0>         0.0644
     54 H18        -0.2359   -0.6161    6.6498 H         1 <0>         0.0882
     55 H19         1.1052   -1.3801    5.7564 H         1 <0>         0.0860
     56 H20         1.8775    0.2836    7.4948 H         1 <0>         0.0923
     57 H21         2.4051    0.6882    5.8431 H         1 <0>         0.0384
     58 H22         0.0048    3.3719    5.3827 H         1 <0>         0.0893
     59 H23         1.3347    2.4534    4.6360 H         1 <0>         0.0406
     60 H24        -0.7623    1.7187    3.6375 H         1 <0>         0.0928
     61 H25        -1.4705    1.4325    5.2490 H         1 <0>         0.0808
     62 H26         2.0673    2.4481    8.2329 H         1 <0>         0.0853
     63 H27         2.5455    3.1470    6.6673 H         1 <0>         0.0486
     64 H28         1.5164    4.8919    8.0419 H         1 <0>         0.0491
     65 H29         0.4327    4.5063    6.6835 H         1 <0>         0.0458
     66 H30        -0.7323    4.5440    8.7685 H         1 <0>         0.3760
@<TRIPOS>BOND
     1    1    2 1
     2    1   37 1
     3    1   38 1
     4    1   39 1
     5    2    7 1
     6    2    3 2
     7    3    4 1
     8    3   40 1
     9    4    5 2
    10    4   41 1
    11    5    6 1
    12    5   42 1
    13    6   11 am
    14    6    7 1
    15    7    8 2
    16    8    9 1
    17    9   10 2
    18    9   28 1
    19   10   11 1
    20   10   13 1
    21   11   12 2
    22   13   14 2
    23   13   43 1
    24   14   15 1
    25   14   17 1
    26   15   16 3
    27   17   18 2
    28   17   19 am
    29   19   20 1
    30   19   44 1
    31   20   25 ar
    32   20   21 ar
    33   21   22 ar
    34   21   45 1
    35   22   23 ar
    36   22   46 1
    37   23   24 ar
    38   23   27 1
    39   24   25 ar
    40   24   26 1
    41   25   47 1
    42   26   48 1
    43   26   49 1
    44   26   50 1
    45   27   51 1
    46   27   52 1
    47   27   53 1
    48   28   33 1
    49   28   29 1
    50   29   30 1
    51   29   54 1
    52   29   55 1
    53   30   31 1
    54   30   56 1
    55   30   57 1
    56   31   32 1
    57   31   34 1
    58   32   33 1
    59   32   58 1
    60   32   59 1
    61   33   60 1
    62   33   61 1
    63   34   35 1
    64   34   62 1
    65   34   63 1
    66   35   36 1
    67   35   64 1
    68   35   65 1
    69   36   66 1
