@<TRIPOS>MOLECULE
ZINC39782160
   54    58     0     0     0
SMALL
USER_CHARGES

@<TRIPOS>ATOM
      1 C1         -0.1499    2.4169   -1.0728 C.3       1 <0>        -0.1460
      2 C2         -0.3290    0.8975   -1.0780 C.3       1 <0>         0.1176
      3 C3          0.5714    0.2579   -2.1163 C.2       1 <0>         0.5299
      4 O1          0.5518    0.4404   -3.3147 O.2       1 <0>        -0.4588
      5 N1          1.3986   -0.5550   -1.4301 N.am      1 <0>        -0.5754
      6 C4          1.1487   -0.5184   -0.1162 C.2       1 <0>         0.7001
      7 O2          1.7644   -1.1669    0.7069 O.2       1 <0>        -0.5331
      8 N2          0.1395    0.3160    0.1918 N.am      1 <0>        -0.7182
      9 C5          2.4422   -1.3779   -2.0467 C.3       1 <0>         0.1351
     10 C6          3.7468   -0.5814   -2.1133 C.3       1 <0>        -0.0956
     11 S1          5.0389   -1.6003   -2.8768 S.3       1 <0>        -0.2296
     12 C7          6.5002   -0.5254   -2.8809 C.3       1 <0>         0.3909
     13 H1          7.3545   -1.0466   -3.3130 H         1 <0>         0.1359
     14 N3          6.8102   -0.0727   -1.5148 N.pl3     1 <0>        -0.5815
     15 N4          6.7056    1.3231   -1.5251 N.2       1 <0>        -0.1725
     16 C8          6.3756    1.7656   -2.7096 C.2       1 <0>         0.2605
     17 N5          6.2246    0.7155   -3.6234 N.pl3     1 <0>        -0.6049
     18 C9          5.8630    0.8272   -5.0387 C.3       1 <0>         0.0772
     19 C10         5.6706   -0.4720   -5.8234 C.3       1 <0>        -0.1564
     20 C11         6.9066    0.3952   -6.0707 C.3       1 <0>        -0.1893
     21 C12         6.1963    3.1209   -3.0261 C.2       1 <0>         0.1358
     22 C13         6.4262    4.2186   -2.1961 C.ar      1 <0>        -0.1430
     23 C14         6.8811    4.3282   -0.8648 C.ar      1 <0>        -0.0107
     24 C15         7.0144    5.5547   -0.2974 C.ar      1 <0>        -0.1496
     25 C16         6.7112    6.7226   -1.0004 C.ar      1 <0>         0.0476
     26 C17         6.2695    6.6918   -2.2819 C.ar      1 <0>        -0.2051
     27 C18         6.1052    5.4465   -2.9417 C.ar      1 <0>         0.3150
     28 N6          5.6991    5.1526   -4.1614 N.pl3     1 <0>        -0.5986
     29 C19         5.7194    3.6977   -4.3409 C.3       1 <0>         0.0780
     30 C20        -1.7927    0.5304   -1.3305 C.3       1 <0>        -0.1509
     31 H2          0.9014    2.6584   -0.9161 H         1 <0>         0.0615
     32 H3         -0.4778    2.8247   -2.0290 H         1 <0>         0.0858
     33 H4         -0.7459    2.8503   -0.2695 H         1 <0>         0.0851
     34 H5         -0.2112    0.4993    1.0775 H         1 <0>         0.4433
     35 H6          2.5955   -2.2772   -1.4502 H         1 <0>         0.1109
     36 H7          2.1357   -1.6582   -3.0545 H         1 <0>         0.1080
     37 H8          3.5934    0.3179   -2.7098 H         1 <0>         0.0822
     38 H9          4.0532   -0.3011   -1.1055 H         1 <0>         0.0895
     39 H10         7.0411   -0.6318   -0.7565 H         1 <0>         0.4689
     40 H11         5.2208    1.6700   -5.2947 H         1 <0>         0.1313
     41 H12         5.8130   -1.4100   -5.2867 H         1 <0>         0.1157
     42 H13         4.9016   -0.4843   -6.5958 H         1 <0>         0.1172
     43 H14         6.9508    0.9534   -7.0059 H         1 <0>         0.1126
     44 H15         7.8622    0.0278   -5.6967 H         1 <0>         0.1027
     45 H16         7.1220    3.4401   -0.2994 H         1 <0>         0.1602
     46 H17         7.3629    5.6287    0.7222 H         1 <0>         0.1559
     47 H18         6.8316    7.6770   -0.5095 H         1 <0>         0.1610
     48 H19         6.0429    7.6125   -2.7989 H         1 <0>         0.1609
     49 H20         6.4071    3.4255   -5.1415 H         1 <0>         0.1751
     50 H21         4.7165    3.3358   -4.5676 H         1 <0>         0.1704
     51 H22        -2.1016    0.9161   -2.3021 H         1 <0>         0.0871
     52 H23        -1.9027   -0.5539   -1.3183 H         1 <0>         0.0705
     53 H24        -2.4166    0.9677   -0.5510 H         1 <0>         0.0850
     54 H25         5.4330    5.7977   -4.8352 H         1 <0>         0.4551
@<TRIPOS>BOND
     1    1    2 1
     2    1   31 1
     3    1   32 1
     4    1   33 1
     5    2    8 1
     6    2    3 1
     7    2   30 1
     8    3    4 2
     9    3    5 am
    10    5    6 am
    11    5    9 1
    12    6    7 2
    13    6    8 am
    14    8   34 1
    15    9   10 1
    16    9   35 1
    17    9   36 1
    18   10   11 1
    19   10   37 1
    20   10   38 1
    21   11   12 1
    22   12   13 1
    23   12   17 1
    24   12   14 1
    25   14   15 1
    26   14   39 1
    27   15   16 2
    28   16   17 1
    29   16   21 1
    30   17   18 1
    31   18   20 1
    32   18   19 1
    33   18   40 1
    34   19   20 1
    35   19   41 1
    36   19   42 1
    37   20   43 1
    38   20   44 1
    39   21   29 1
    40   21   22 2
    41   22   27 ar
    42   22   23 ar
    43   23   24 ar
    44   23   45 1
    45   24   25 ar
    46   24   46 1
    47   25   26 ar
    48   25   47 1
    49   26   27 ar
    50   26   48 1
    51   27   28 2
    52   28   29 1
    53   28   54 1
    54   29   49 1
    55   29   50 1
    56   30   51 1
    57   30   52 1
    58   30   53 1
