@<TRIPOS>MOLECULE
ZINC12415253
   48    51     0     0     0
SMALL
USER_CHARGES
2-(oxoBLAHyl)-N-(3,4,5-trimethoxyphenyl)acetamide
@<TRIPOS>ATOM
      1 C1         -3.9402    6.0870    2.3089 C.3       1 <0>         0.0243
      2 O1         -3.3015    4.8733    2.7100 O.3       1 <0>        -0.2979
      3 C2         -2.1165    4.5731    2.1142 C.ar      1 <0>         0.1701
      4 C3         -1.5816    5.4292    1.1643 C.ar      1 <0>        -0.2343
      5 C4         -0.3718    5.1232    0.5563 C.ar      1 <0>         0.2188
      6 C5          0.3032    3.9595    0.8986 C.ar      1 <0>        -0.2581
      7 C6         -0.2301    3.1023    1.8482 C.ar      1 <0>         0.1694
      8 C7         -1.4385    3.4106    2.4616 C.ar      1 <0>         0.0169
      9 O2         -1.9603    2.5719    3.3986 O.3       1 <0>        -0.3105
     10 C8         -2.8290    1.5377    2.9318 C.3       1 <0>         0.0342
     11 O3          0.4317    1.9625    2.1836 O.3       1 <0>        -0.2982
     12 C9          1.6709    1.7119    1.5177 C.3       1 <0>         0.0237
     13 N1          0.1679    5.9891   -0.4036 N.am      1 <0>        -0.6655
     14 C10        -0.0243    7.3187   -0.2957 C.2       1 <0>         0.5005
     15 O4         -0.5813    7.7737    0.6809 O.2       1 <0>        -0.4974
     16 C11         0.4530    8.2401   -1.3886 C.3       1 <0>         0.0804
     17 N2          0.1277    9.6245   -1.0368 N.am      1 <0>        -0.5158
     18 C12         1.0089   10.3788   -0.3315 C.2       1 <0>         0.3901
     19 N3          0.7735   11.6077    0.0062 N.2       1 <0>        -0.5074
     20 C13        -0.3889   12.2400   -0.3251 C.2       1 <0>         0.1929
     21 C14        -0.7795   13.6239   -0.0062 C.ar      1 <0>        -0.1432
     22 C15        -0.0332   14.5894    0.7101 C.ar      1 <0>         0.0013
     23 C16        -0.5747   15.8393    0.9055 C.ar      1 <0>        -0.1841
     24 C17        -1.8321   16.1431    0.4070 C.ar      1 <0>         0.1559
     25 N4         -2.5226   15.2385   -0.2595 N.ar      1 <0>        -0.4492
     26 C18        -2.0447   14.0301   -0.4708 C.ar      1 <0>         0.1045
     27 S1         -2.6801   12.5970   -1.3057 S.3       1 <0>         0.2075
     28 C19        -1.3164   11.4948   -1.0488 C.2       1 <0>        -0.2973
     29 C20        -1.0532   10.1681   -1.4162 C.2       1 <0>         0.5833
     30 O5         -1.8659    9.5206   -2.0549 O.2       1 <0>        -0.5116
     31 H1         -4.8736    6.2054    2.8592 H         1 <0>         0.1054
     32 H2         -4.1508    6.0507    1.2400 H         1 <0>         0.0566
     33 H3         -3.2835    6.9306    2.5214 H         1 <0>         0.0613
     34 H4         -2.1062    6.3347    0.8975 H         1 <0>         0.1480
     35 H5          1.2444    3.7223    0.4250 H         1 <0>         0.1406
     36 H6         -3.1736    0.9432    3.7780 H         1 <0>         0.0932
     37 H7         -3.6865    1.9834    2.4277 H         1 <0>         0.0443
     38 H8         -2.2894    0.8976    2.2338 H         1 <0>         0.0442
     39 H9          2.3658    2.5258    1.7248 H         1 <0>         0.0584
     40 H10         2.0931    0.7734    1.8769 H         1 <0>         0.1047
     41 H11         1.4991    1.6454    0.4434 H         1 <0>         0.0576
     42 H12         0.6800    5.6317   -1.1458 H         1 <0>         0.4169
     43 H13         1.5321    8.1385   -1.5040 H         1 <0>         0.1380
     44 H14        -0.0389    7.9780   -2.3253 H         1 <0>         0.1411
     45 H15         1.9489    9.9348   -0.0389 H         1 <0>         0.2103
     46 H16         0.9458   14.3490    1.0976 H         1 <0>         0.1488
     47 H17        -0.0176   16.5870    1.4503 H         1 <0>         0.1502
     48 H18        -2.2487   17.1269    0.5653 H         1 <0>         0.1772
@<TRIPOS>BOND
     1    1    2 1
     2    1   31 1
     3    1   32 1
     4    1   33 1
     5    2    3 1
     6    3    8 ar
     7    3    4 ar
     8    4    5 ar
     9    4   34 1
    10    5    6 ar
    11    5   13 1
    12    6    7 ar
    13    6   35 1
    14    7    8 ar
    15    7   11 1
    16    8    9 1
    17    9   10 1
    18   10   36 1
    19   10   37 1
    20   10   38 1
    21   11   12 1
    22   12   39 1
    23   12   40 1
    24   12   41 1
    25   13   14 am
    26   13   42 1
    27   14   15 2
    28   14   16 1
    29   16   17 1
    30   16   43 1
    31   16   44 1
    32   17   29 am
    33   17   18 1
    34   18   19 2
    35   18   45 1
    36   19   20 1
    37   20   28 2
    38   20   21 1
    39   21   26 ar
    40   21   22 ar
    41   22   23 ar
    42   22   46 1
    43   23   24 ar
    44   23   47 1
    45   24   25 ar
    46   24   48 1
    47   25   26 ar
    48   26   27 1
    49   27   28 1
    50   28   29 1
    51   29   30 2
