@<TRIPOS>MOLECULE
ZINC52301984
   31    32     0     0     0
SMALL
USER_CHARGES

@<TRIPOS>ATOM
      1 C1          0.3018    2.0526    0.3176 C.3       1 <0>        -0.1220
      2 C2          0.1971    0.5396    0.1158 C.3       1 <0>        -0.1632
      3 H1          0.2843    0.1956   -0.9149 H         1 <0>         0.1101
      4 C3         -0.7452   -0.2330    1.0410 C.3       1 <0>        -0.1740
      5 C4          0.7706   -0.3607    1.2119 C.3       1 <0>         0.0757
      6 H2          1.2347   -1.2971    0.9024 H         1 <0>         0.1329
      7 N1          1.3780    0.2920    2.3743 N.pl3     1 <0>        -1.0659
      8 S1          2.6917   -0.3918    3.1153 S.o2      1 <0>         2.7035
      9 O1          3.0701    0.4887    4.1645 O.2       1 <0>        -0.9288
     10 O2          2.3642   -1.7552    3.3457 O.2       1 <0>        -0.9503
     11 C5          4.0120   -0.3813    1.9484 C.ar      1 <0>        -0.5755
     12 C6          4.5536   -1.5735    1.5089 C.ar      1 <0>        -0.0972
     13 C7          5.5940   -1.5643    0.5887 C.ar      1 <0>         0.2517
     14 C8          6.0862   -0.3552    0.1135 C.ar      1 <0>        -0.1564
     15 C9          5.5401    0.8330    0.5571 C.ar      1 <0>        -0.0116
     16 C10         4.5007    0.8201    1.4695 C.ar      1 <0>        -0.0286
     17 N2          3.9141    2.0955    1.9384 N.pl3     1 <0>         0.0364
     18 O3          4.4210    3.1465    1.6222 O.2       1 <0>        -0.1410
     19 O4          2.9279    2.0862    2.6378 O.3       1 <0>        -0.1637
     20 N3          6.1443   -2.7680    0.1425 N.pl3     1 <0>        -0.8518
     21 H3          1.3509    2.3361    0.4019 H         1 <0>         0.0557
     22 H4         -0.1455    2.5646   -0.5343 H         1 <0>         0.0630
     23 H5         -0.2252    2.3349    1.2289 H         1 <0>         0.0617
     24 H6         -1.2905    0.3366    1.7935 H         1 <0>         0.1038
     25 H7         -1.2777   -1.0854    0.6192 H         1 <0>         0.1048
     26 H8          1.0106    1.1246    2.7100 H         1 <0>         0.4302
     27 H9          4.1689   -2.5117    1.8805 H         1 <0>         0.1640
     28 H10         6.8954   -0.3445   -0.6017 H         1 <0>         0.1532
     29 H11         5.9224    1.7733    0.1881 H         1 <0>         0.1618
     30 H12         5.8000   -3.6116    0.4752 H         1 <0>         0.4110
     31 H13         6.8709   -2.7603   -0.5002 H         1 <0>         0.4105
@<TRIPOS>BOND
     1    1    2 1
     2    1   21 1
     3    1   22 1
     4    1   23 1
     5    2    3 1
     6    2    5 1
     7    2    4 1
     8    4    5 1
     9    4   24 1
    10    4   25 1
    11    5    6 1
    12    5    7 1
    13    7    8 1
    14    7   26 1
    15    8    9 2
    16    8   10 2
    17    8   11 1
    18   11   16 ar
    19   11   12 ar
    20   12   13 ar
    21   12   27 1
    22   13   14 ar
    23   13   20 1
    24   14   15 ar
    25   14   28 1
    26   15   16 ar
    27   15   29 1
    28   16   17 1
    29   17   18 2
    30   17   19 1
    31   20   30 1
    32   20   31 1
