@<TRIPOS>MOLECULE
ZINC20494740
   37    38     0     0     0
SMALL
USER_CHARGES
N-[4-(carbamimidoylsulfamoyl)phenyl]-2-hydroxy-benzamide
@<TRIPOS>ATOM
      1 C1         -4.9888    4.1850    8.4147 C.ar      1 <0>        -0.1754
      2 C2         -5.1988    5.5285    8.6806 C.ar      1 <0>        -0.0385
      3 C3         -4.7882    6.4912    7.7803 C.ar      1 <0>        -0.1793
      4 C4         -4.1616    6.1178    6.6005 C.ar      1 <0>         0.2425
      5 C5         -3.9473    4.7599    6.3278 C.ar      1 <0>        -0.2595
      6 C6         -4.3727    3.7958    7.2453 C.ar      1 <0>        -0.0397
      7 C7         -3.2820    4.3506    5.0765 C.2       1 <0>         0.5864
      8 O1         -2.9177    5.1923    4.2781 O.2       1 <0>        -0.5330
      9 N1         -3.0779    3.0436    4.8182 N.am      1 <0>        -0.6770
     10 C8         -2.3502    2.6597    3.6872 C.ar      1 <0>         0.1988
     11 C9         -2.6720    1.4860    3.0180 C.ar      1 <0>        -0.1598
     12 C10        -1.9517    1.1100    1.9012 C.ar      1 <0>         0.0086
     13 C11        -0.9114    1.9009    1.4490 C.ar      1 <0>        -0.6995
     14 C12        -0.5848    3.0672    2.1164 C.ar      1 <0>        -0.0230
     15 C13        -1.3045    3.4516    3.2307 C.ar      1 <0>        -0.1368
     16 S1          0.0047    1.4178    0.0235 S.o2      1 <0>         2.6330
     17 O2         -0.1414    0.0093   -0.0951 O.2       1 <0>        -0.9487
     18 O3          1.2752    2.0460    0.1250 O.2       1 <0>        -1.0133
     19 N2         -0.7490    2.0842   -1.2919 N.2       1 <0>        -1.0388
     20 C14        -0.7929    3.4503   -1.4401 C.2       1 <0>         0.7328
     21 N3         -0.2413    4.2209   -0.5453 N.pl3     1 <0>        -0.8664
     22 N4         -1.4186    4.0035   -2.5322 N.pl3     1 <0>        -0.8458
     23 O4         -3.7585    7.0626    5.7145 O.3       1 <0>        -0.5148
     24 H1         -5.3136    3.4393    9.1252 H         1 <0>         0.1328
     25 H2         -5.6868    5.8243    9.5975 H         1 <0>         0.1363
     26 H3         -4.9554    7.5364    7.9947 H         1 <0>         0.1387
     27 H4         -4.2152    2.7473    7.0401 H         1 <0>         0.1258
     28 H5         -3.4837    2.2789    5.4969 H         1 <0>         0.4432
     29 H6         -3.4849    0.8683    3.3703 H         1 <0>         0.1385
     30 H7         -2.2014    0.1975    1.3803 H         1 <0>         0.1482
     31 H8          0.2311    3.6804    1.7632 H         1 <0>         0.1339
     32 H9         -1.0520    4.3650    3.7487 H         1 <0>         0.1441
     33 H10        -0.2764    5.3139   -0.6638 H         1 <0>         0.4335
     34 H11        -1.4537    5.0965   -2.6508 H         1 <0>         0.4320
     35 H12        -1.8841    3.3531   -3.2874 H         1 <0>         0.4548
     36 H13        -3.2618    6.7637    4.7796 H         1 <0>         0.4453
     37 H14         0.2593    3.7782    0.3284 H         1 <0>         0.4401
@<TRIPOS>BOND
     1    1    6 ar
     2    1    2 ar
     3    1   24 1
     4    2    3 ar
     5    2   25 1
     6    3    4 ar
     7    3   26 1
     8    4    5 ar
     9    4   23 1
    10    5    6 ar
    11    5    7 1
    12    6   27 1
    13    7    8 2
    14    7    9 am
    15    9   10 1
    16    9   28 1
    17   10   15 ar
    18   10   11 ar
    19   11   12 ar
    20   11   29 1
    21   12   13 ar
    22   12   30 1
    23   13   14 ar
    24   13   16 1
    25   14   15 ar
    26   14   31 1
    27   15   32 1
    28   16   17 2
    29   16   18 2
    30   16   19 1
    31   19   20 2
    32   20   21 1
    33   20   22 1
    34   21   33 1
    35   21   37 1
    36   22   34 1
    37   22   35 1
    38   23   36 1
