@<TRIPOS>MOLECULE
ZINC20418652
   65    69     0     0     0
SMALL
USER_CHARGES

@<TRIPOS>ATOM
      1 C1          0.1452    2.1364    1.2200 C.3       1 <0>        -0.1211
      2 C2          0.1776    0.6412    1.0341 C.ar      1 <0>        -0.0790
      3 C3          0.2842    0.1046   -0.2355 C.ar      1 <0>        -0.1201
      4 C4          0.3139   -1.2667   -0.4060 C.ar      1 <0>        -0.1140
      5 C5          0.2374   -2.1017    0.6933 C.ar      1 <0>        -0.1248
      6 C6          0.1317   -1.5652    1.9627 C.ar      1 <0>        -0.0917
      7 C7          0.1064   -0.1935    2.1335 C.ar      1 <0>        -0.0947
      8 C8         -0.0036    0.3916    3.5179 C.3       1 <0>         0.1059
      9 O1         -0.0618   -0.6650    4.4783 O.3       1 <0>        -0.3093
     10 C9         -0.1631   -0.3061    5.7851 C.ar      1 <0>         0.1343
     11 C10        -0.2115    1.0356    6.1355 C.ar      1 <0>        -0.2100
     12 C11        -0.3151    1.3978    7.4644 C.ar      1 <0>        -0.0788
     13 C12        -0.3705    0.4246    8.4452 C.ar      1 <0>        -0.1365
     14 C13        -0.3220   -0.9128    8.0987 C.ar      1 <0>        -0.0302
     15 C14        -0.2242   -1.2805    6.7705 C.ar      1 <0>        -0.1361
     16 C15        -0.3821   -1.9708    9.1703 C.3       1 <0>         0.1200
     17 H1         -0.3839   -2.9594    8.7112 H         1 <0>         0.0981
     18 C16        -1.6311   -1.7902    9.9935 C.2       1 <0>        -0.2493
     19 C17        -2.9617   -2.0484    9.6507 C.2       1 <0>         0.1708
     20 N1         -3.7158   -1.7386   10.6882 N.2       1 <0>        -0.2516
     21 N2         -2.8821   -1.2753   11.7179 N.pl3     1 <0>        -0.4462
     22 H2         -3.1705   -0.9790   12.5954 H         1 <0>         0.4482
     23 C18        -1.6090   -1.3154   11.2730 C.2       1 <0>         0.2761
     24 O2         -0.4601   -0.9707   11.9064 O.3       1 <0>        -0.2296
     25 C19         0.7031   -1.3610   11.3468 C.2       1 <0>         0.4396
     26 C20         0.8096   -1.8368   10.0853 C.2       1 <0>        -0.2556
     27 C21         2.0992   -2.2269    9.6001 C.1       1 <0>         0.2697
     28 N3          3.1222   -2.5364    9.2153 N.1       1 <0>        -0.4349
     29 N4          1.8459   -1.2712   12.1019 N.pl3     1 <0>        -0.8304
     30 C22        -3.4413   -2.5771    8.3495 C.ar      1 <0>        -0.0607
     31 C23        -2.7509   -3.6102    7.7186 C.ar      1 <0>        -0.0494
     32 C24        -3.1989   -4.0995    6.5094 C.ar      1 <0>        -0.1508
     33 C25        -4.3364   -3.5639    5.9208 C.ar      1 <0>         0.1492
     34 C26        -5.0258   -2.5343    6.5468 C.ar      1 <0>        -0.2121
     35 C27        -4.5860   -2.0452    7.7591 C.ar      1 <0>        -0.0434
     36 O3         -4.7754   -4.0479    4.7294 O.3       1 <0>        -0.3076
     37 C28        -5.8867   -3.3806    4.1279 C.3       1 <0>         0.0767
     38 C29        -5.8605   -3.6084    2.6152 C.3       1 <0>        -0.1499
     39 C30        -7.1895   -3.9377    4.7051 C.3       1 <0>        -0.1820
     40 H3          1.1622    2.5096    1.3408 H         1 <0>         0.0737
     41 H4         -0.3110    2.6013    0.3460 H         1 <0>         0.0706
     42 H5         -0.4390    2.3796    2.1075 H         1 <0>         0.0653
     43 H6          0.3440    0.7569   -1.0942 H         1 <0>         0.1241
     44 H7          0.3965   -1.6859   -1.3978 H         1 <0>         0.1229
     45 H8          0.2599   -3.1732    0.5601 H         1 <0>         0.1237
     46 H9          0.0716   -2.2175    2.8213 H         1 <0>         0.1323
     47 H10         0.8663    1.0171    3.7182 H         1 <0>         0.0744
     48 H11        -0.9086    0.9951    3.5865 H         1 <0>         0.0747
     49 H12        -0.1679    1.7961    5.3698 H         1 <0>         0.1243
     50 H13        -0.3524    2.4420    7.7376 H         1 <0>         0.1223
     51 H14        -0.4514    0.7099    9.4837 H         1 <0>         0.1138
     52 H15        -0.1909   -2.3255    6.5000 H         1 <0>         0.1296
     53 H16         1.8017   -0.9346   13.0105 H         1 <0>         0.4115
     54 H17         2.6978   -1.5444   11.7268 H         1 <0>         0.4283
     55 H18        -1.8658   -4.0271    8.1759 H         1 <0>         0.1335
     56 H19        -2.6641   -4.8999    6.0198 H         1 <0>         0.1356
     57 H20        -5.9102   -2.1193    6.0864 H         1 <0>         0.1325
     58 H21        -5.1255   -1.2475    8.2479 H         1 <0>         0.1281
     59 H22        -5.8248   -2.3123    4.3355 H         1 <0>         0.0743
     60 H23        -5.9224   -4.6767    2.4076 H         1 <0>         0.0677
     61 H24        -6.7081   -3.0994    2.1564 H         1 <0>         0.0771
     62 H25        -4.9324   -3.2116    2.2040 H         1 <0>         0.0658
     63 H26        -8.0371   -3.4287    4.2463 H         1 <0>         0.0726
     64 H27        -7.2514   -5.0059    4.4975 H         1 <0>         0.0684
     65 H28        -7.2082   -3.7753    5.7828 H         1 <0>         0.0639
@<TRIPOS>BOND
     1    1    2 1
     2    1   40 1
     3    1   41 1
     4    1   42 1
     5    2    7 ar
     6    2    3 ar
     7    3    4 ar
     8    3   43 1
     9    4    5 ar
    10    4   44 1
    11    5    6 ar
    12    5   45 1
    13    6    7 ar
    14    6   46 1
    15    7    8 1
    16    8    9 1
    17    8   47 1
    18    8   48 1
    19    9   10 1
    20   10   15 ar
    21   10   11 ar
    22   11   12 ar
    23   11   49 1
    24   12   13 ar
    25   12   50 1
    26   13   14 ar
    27   13   51 1
    28   14   15 ar
    29   14   16 1
    30   15   52 1
    31   16   17 1
    32   16   26 1
    33   16   18 1
    34   18   23 2
    35   18   19 1
    36   19   20 2
    37   19   30 1
    38   20   21 1
    39   21   22 1
    40   21   23 1
    41   23   24 1
    42   24   25 1
    43   25   26 2
    44   25   29 1
    45   26   27 1
    46   27   28 3
    47   29   53 1
    48   29   54 1
    49   30   35 ar
    50   30   31 ar
    51   31   32 ar
    52   31   55 1
    53   32   33 ar
    54   32   56 1
    55   33   34 ar
    56   33   36 1
    57   34   35 ar
    58   34   57 1
    59   35   58 1
    60   36   37 1
    61   37   38 1
    62   37   39 1
    63   37   59 1
    64   38   60 1
    65   38   61 1
    66   38   62 1
    67   39   63 1
    68   39   64 1
    69   39   65 1
