@<TRIPOS>MOLECULE
ZINC39567325
   54    55     0     0     0
SMALL
USER_CHARGES

@<TRIPOS>ATOM
      1 C1         -0.0187    1.5258    0.0104 C.3       1 <0>        -0.1788
      2 C2          0.0021   -0.0041    0.0020 C.3       1 <0>         0.1309
      3 H1         -1.0205   -0.3814    0.0098 H         1 <0>         0.1504
      4 C3          0.7074   -0.4901   -1.2379 C.2       1 <0>         0.1208
      5 N1          1.9931   -0.4780   -1.4500 N.2       1 <0>        -0.2484
      6 N2          2.2549   -0.9652   -2.6100 N.2       1 <0>        -0.2776
      7 C4          1.1409   -1.3187   -3.2084 C.2       1 <0>         0.1827
      8 N3          0.1166   -1.0318   -2.3485 N.pl3     1 <0>        -0.3945
      9 C5         -1.2536   -1.2450   -2.5610 C.ar      1 <0>         0.0779
     10 C6         -1.9485   -2.1458   -1.7658 C.ar      1 <0>        -0.0951
     11 C7         -3.2976   -2.3537   -1.9766 C.ar      1 <0>        -0.0928
     12 C8         -3.9564   -1.6650   -2.9800 C.ar      1 <0>        -0.0103
     13 C9         -3.2656   -0.7665   -3.7740 C.ar      1 <0>        -0.0862
     14 C10        -1.9177   -0.5511   -3.5632 C.ar      1 <0>        -0.0763
     15 Cl1        -5.6518   -1.9292   -3.2434 Cl        1 <0>        -0.0317
     16 S1          0.9940   -2.0338   -4.8121 S.3       1 <0>         0.1224
     17 C11         2.7065   -2.1518   -5.3986 C.3       1 <0>        -0.1563
     18 C12         2.7242   -2.7557   -6.7792 C.2       1 <0>         0.5409
     19 O1          1.6843   -3.0749   -7.3145 O.2       1 <0>        -0.4467
     20 N4          3.8960   -2.9409   -7.4187 N.am      1 <0>        -0.6841
     21 C13         3.9118   -3.4810   -8.6534 C.2       1 <0>         0.6942
     22 O2          2.8693   -3.8011   -9.1901 O.2       1 <0>        -0.5224
     23 N5          5.0836   -3.6663   -9.2930 N.am      1 <0>        -0.7292
     24 C14         5.1008   -4.2534  -10.6351 C.3       1 <0>         0.1507
     25 C15         6.3651   -3.8060  -11.3713 C.3       1 <0>        -0.1625
     26 C16         5.0880   -5.7793  -10.5244 C.3       1 <0>        -0.1672
     27 N6          0.7126   -0.4907    1.1921 N.4       1 <0>        -0.3814
     28 C17         0.0250   -0.0169    2.4007 C.3       1 <0>        -0.0523
     29 C18         0.7325   -1.9595    1.1840 C.3       1 <0>        -0.0504
     30 H2          1.0039    1.9031    0.0027 H         1 <0>         0.0945
     31 H3         -0.5459    1.8868   -0.8726 H         1 <0>         0.1070
     32 H4         -0.5289    1.8773    0.9072 H         1 <0>         0.0997
     33 H5         -1.4346   -2.6840   -0.9830 H         1 <0>         0.1368
     34 H6         -3.8387   -3.0544   -1.3581 H         1 <0>         0.1537
     35 H7         -3.7818   -0.2302   -4.5565 H         1 <0>         0.1563
     36 H8         -1.3800    0.1533   -4.1804 H         1 <0>         0.1476
     37 H9          3.1486   -1.1560   -5.4319 H         1 <0>         0.1383
     38 H10         3.2807   -2.7817   -4.7191 H         1 <0>         0.1376
     39 H11         4.7280   -2.6855   -6.9904 H         1 <0>         0.4140
     40 H12         5.9156   -3.4109   -8.8647 H         1 <0>         0.3994
     41 H13         4.2218   -3.9218  -11.1880 H         1 <0>         0.0928
     42 H14         7.2441   -4.1375  -10.8184 H         1 <0>         0.0631
     43 H15         6.3779   -4.2428  -12.3699 H         1 <0>         0.0793
     44 H16         6.3742   -2.7189  -11.4501 H         1 <0>         0.0635
     45 H17         5.1008   -6.2161  -11.5230 H         1 <0>         0.0716
     46 H18         5.9669   -6.1109   -9.9716 H         1 <0>         0.0582
     47 H19         4.1872   -6.0980   -9.9999 H         1 <0>         0.0611
     48 H20        -0.9976   -0.3942    2.4085 H         1 <0>         0.1253
     49 H21         0.5522   -0.3780    3.2838 H         1 <0>         0.1335
     50 H22         0.0102    1.0729    2.4067 H         1 <0>         0.1306
     51 H23         1.2427   -2.3111    0.2873 H         1 <0>         0.1164
     52 H24         1.2597   -2.3206    2.0671 H         1 <0>         0.1349
     53 H25        -0.2901   -2.3368    1.1918 H         1 <0>         0.1218
     54 H26         1.6592   -0.1414    1.1850 H         1 <0>         0.4364
@<TRIPOS>BOND
     1    1    2 1
     2    1   30 1
     3    1   31 1
     4    1   32 1
     5    2    3 1
     6    2    4 1
     7    2   27 1
     8    4    8 1
     9    4    5 2
    10    5    6 1
    11    6    7 2
    12    7    8 1
    13    7   16 1
    14    8    9 1
    15    9   14 ar
    16    9   10 ar
    17   10   11 ar
    18   10   33 1
    19   11   12 ar
    20   11   34 1
    21   12   13 ar
    22   12   15 1
    23   13   14 ar
    24   13   35 1
    25   14   36 1
    26   16   17 1
    27   17   18 1
    28   17   37 1
    29   17   38 1
    30   18   19 2
    31   18   20 am
    32   20   21 am
    33   20   39 1
    34   21   22 2
    35   21   23 am
    36   23   24 1
    37   23   40 1
    38   24   25 1
    39   24   26 1
    40   24   41 1
    41   25   42 1
    42   25   43 1
    43   25   44 1
    44   26   45 1
    45   26   46 1
    46   26   47 1
    47   27   28 1
    48   27   29 1
    49   27   54 1
    50   28   48 1
    51   28   49 1
    52   28   50 1
    53   29   51 1
    54   29   52 1
    55   29   53 1
