@<TRIPOS>MOLECULE
ZINC10332777
   50    51     0     0     0
SMALL
USER_CHARGES
N'-[2-dimethylamino-2-(4-fluorophenyl)-ethyl]-N-(2-methyl-4-nitro-phenyl)-oxamide
@<TRIPOS>ATOM
      1 C1         -0.2025    1.0348   -6.8676 C.3       1 <0>        -0.1225
      2 C2         -1.6790    0.8288   -6.6472 C.ar      1 <0>        -0.0967
      3 C3         -2.5574    0.9316   -7.7081 C.ar      1 <0>        -0.0359
      4 C4         -3.9129    0.7479   -7.5057 C.ar      1 <0>        -0.0439
      5 C5         -4.3934    0.4556   -6.2421 C.ar      1 <0>        -0.0403
      6 C6         -3.5203    0.3462   -5.1780 C.ar      1 <0>        -0.1153
      7 C7         -2.1576    0.5301   -5.3778 C.ar      1 <0>         0.1778
      8 N1         -1.2713    0.4206   -4.3032 N.am      1 <0>        -0.6347
      9 C8         -1.6537    0.8123   -3.0716 C.2       1 <0>         0.5109
     10 O1         -2.7969    1.1704   -2.8764 O.2       1 <0>        -0.4907
     11 C9         -0.6709    0.8057   -1.9471 C.2       1 <0>         0.5172
     12 O2          0.4721    0.4476   -2.1423 O.2       1 <0>        -0.4809
     13 N2         -1.0534    1.1973   -0.7155 N.am      1 <0>        -0.7243
     14 C10        -0.0893    1.1908    0.3876 C.3       1 <0>         0.0974
     15 C11        -0.7188    1.8453    1.6190 C.3       1 <0>         0.0768
     16 H1         -1.6464    1.3307    1.8697 H         1 <0>         0.1565
     17 C12         0.2367    1.7530    2.7807 C.ar      1 <0>        -0.1612
     18 C13         1.2105    2.7190    2.9524 C.ar      1 <0>        -0.0992
     19 C14         2.0837    2.6385    4.0206 C.ar      1 <0>        -0.1386
     20 C15         1.9904    1.5833    4.9122 C.ar      1 <0>         0.1392
     21 C16         1.0182    0.6133    4.7360 C.ar      1 <0>        -0.1400
     22 C17         0.1423    0.6992    3.6706 C.ar      1 <0>        -0.0503
     23 F1          2.8475    1.5001    5.9532 F         1 <0>        -0.1198
     24 C18        -0.0531    3.7974    0.3506 C.3       1 <0>        -0.0635
     25 C19        -2.3890    3.4311    0.8719 C.3       1 <0>        -0.0495
     26 N3         -4.8519    0.8649   -8.6440 N.pl3     1 <0>         0.0242
     27 O3         -6.0462    0.7037   -8.4672 O.2       1 <0>        -0.1513
     28 O4         -4.4303    1.1223   -9.7573 O.3       1 <0>        -0.1508
     29 H2          0.2644    0.0815   -7.1149 H         1 <0>         0.0872
     30 H3         -0.0521    1.7367   -7.6879 H         1 <0>         0.0871
     31 H4          0.2480    1.4353   -5.9595 H         1 <0>         0.0713
     32 H5         -2.1856    1.1597   -8.6961 H         1 <0>         0.1636
     33 H6         -5.4527    0.3130   -6.0874 H         1 <0>         0.1620
     34 H7         -3.8961    0.1182   -4.1915 H         1 <0>         0.1635
     35 H8         -0.3807    0.0627   -4.4436 H         1 <0>         0.4316
     36 H9         -1.9670    1.4835   -0.5595 H         1 <0>         0.4115
     37 H10         0.1862    0.1629    0.6233 H         1 <0>         0.1227
     38 H11         0.8010    1.7476    0.0953 H         1 <0>         0.1107
     39 H12         1.2864    3.5392    2.2539 H         1 <0>         0.1354
     40 H13         2.8414    3.3958    4.1573 H         1 <0>         0.1520
     41 H14         0.9447   -0.2104    5.4307 H         1 <0>         0.1537
     42 H15        -0.6161   -0.0573    3.5329 H         1 <0>         0.1475
     43 H16        -0.2212    3.3251   -0.6173 H         1 <0>         0.1257
     44 H17        -0.1973    4.8740    0.2595 H         1 <0>         0.1329
     45 H18         0.9651    3.5940    0.6822 H         1 <0>         0.1286
     46 H19        -3.0747    3.1604    1.6748 H         1 <0>         0.1317
     47 H20        -2.5508    4.4720    0.5915 H         1 <0>         0.1338
     48 H21        -2.5690    2.7901    0.0089 H         1 <0>         0.1172
     49 N4         -1.0014    3.2720    1.3553 N.4       1 <0>        -0.3981
     50 H22        -0.8896    3.8010    2.2282 H         1 <0>         0.4378
@<TRIPOS>BOND
     1    1    2 1
     2    1   29 1
     3    1   30 1
     4    1   31 1
     5    2    7 ar
     6    2    3 ar
     7    3    4 ar
     8    3   32 1
     9    4    5 ar
    10    4   26 1
    11    5    6 ar
    12    5   33 1
    13    6    7 ar
    14    6   34 1
    15    7    8 1
    16    8    9 am
    17    8   35 1
    18    9   10 2
    19    9   11 1
    20   11   12 2
    21   11   13 am
    22   13   14 1
    23   13   36 1
    24   14   15 1
    25   14   37 1
    26   14   38 1
    27   15   16 1
    28   15   17 1
    29   15   49 1
    30   17   22 ar
    31   17   18 ar
    32   18   19 ar
    33   18   39 1
    34   19   20 ar
    35   19   40 1
    36   20   21 ar
    37   20   23 1
    38   21   22 ar
    39   21   41 1
    40   22   42 1
    41   24   43 1
    42   24   44 1
    43   24   45 1
    44   24   49 1
    45   25   46 1
    46   25   47 1
    47   25   48 1
    48   25   49 1
    49   26   27 2
    50   26   28 1
    51   49   50 1
