@<TRIPOS>MOLECULE
ZINC08789699
   58    62     0     0     0
SMALL
USER_CHARGES
4-[(1R,3S,3aR,6aS)-1-(3-amino-3-oxo-propyl)-6'-chloro-7'-methyl-2',4,6-trioxo-spiro[1,2,3a,6a-tetrahydropyrrolo[4,3-c]pyrrole-3,3'-indoline]-5-yl]benzamide
@<TRIPOS>ATOM
      1 C1         -6.3035    3.6377    3.6242 C.3       1 <0>        -0.1328
      2 C2         -4.8448    3.7139    3.2532 C.ar      1 <0>        -0.0731
      3 C3         -4.2295    4.9438    3.1292 C.ar      1 <0>         0.0276
      4 C4         -2.8904    5.0231    2.7892 C.ar      1 <0>        -0.1051
      5 C5         -2.1656    3.8646    2.5718 C.ar      1 <0>        -0.0463
      6 C6         -2.7754    2.6364    2.6941 C.ar      1 <0>        -0.2142
      7 C7         -4.1217    2.5439    3.0369 C.ar      1 <0>         0.1941
      8 N1         -4.5127    1.2047    3.1011 N.am      1 <0>        -0.6322
      9 C8         -3.4983    0.3652    2.8173 C.2       1 <0>         0.5402
     10 O1         -3.5454   -0.8466    2.7971 O.2       1 <0>        -0.4330
     11 C9         -2.2954    1.2222    2.5309 C.3       1 <0>         0.0959
     12 C10        -1.1399    0.9030    3.4862 C.3       1 <0>        -0.1230
     13 H1         -1.2255   -0.0824    3.9442 H         1 <0>         0.1809
     14 C11         0.1406    1.0530    2.6182 C.3       1 <0>        -0.1340
     15 H2          0.7507    0.1503    2.5852 H         1 <0>         0.1841
     16 C12        -0.3740    1.4750    1.2252 C.3       1 <0>         0.0406
     17 H3         -0.3476    2.5600    1.1238 H         1 <0>         0.1552
     18 C13         0.4639    0.8180    0.1265 C.3       1 <0>        -0.1230
     19 C14        -0.0071    1.3167   -1.2411 C.3       1 <0>        -0.1608
     20 C15         0.8183    0.6696   -2.3233 C.2       1 <0>         0.5163
     21 O2          1.6967   -0.1134   -2.0296 O.2       1 <0>        -0.5313
     22 N2          0.5802    0.9609   -3.6175 N.am      1 <0>        -0.8499
     23 C16         0.8589    2.2206    3.2562 C.2       1 <0>         0.5278
     24 O3          1.9194    2.6770    2.8868 O.2       1 <0>        -0.4178
     25 N3          0.1416    2.6721    4.2915 N.am      1 <0>        -0.5187
     26 C17        -0.9992    2.0076    4.5086 C.2       1 <0>         0.5386
     27 O4         -1.7961    2.2532    5.3885 O.2       1 <0>        -0.4169
     28 C18         0.5507    3.7503    5.0818 C.ar      1 <0>         0.1183
     29 C19         0.8931    3.5435    6.4136 C.ar      1 <0>        -0.0997
     30 C20         1.3012    4.6024    7.1938 C.ar      1 <0>        -0.0703
     31 C21         1.3608    5.8874    6.6486 C.ar      1 <0>        -0.1122
     32 C22         1.0111    6.0923    5.3115 C.ar      1 <0>        -0.0442
     33 C23         0.6089    5.0279    4.5358 C.ar      1 <0>        -0.1035
     34 C24         1.7920    7.0262    7.4835 C.2       1 <0>         0.5593
     35 O5          1.8430    8.1438    7.0077 O.2       1 <0>        -0.5277
     36 N4          2.1290    6.8267    8.7731 N.am      1 <0>        -0.8459
     37 Cl1        -5.1397    6.3969    3.4006 Cl        1 <0>        -0.0125
     38 H4         -6.4006    3.5926    4.7090 H         1 <0>         0.0927
     39 H5         -6.8203    4.5212    3.2495 H         1 <0>         0.0917
     40 H6         -6.7445    2.7441    3.1825 H         1 <0>         0.0751
     41 H7         -2.4122    5.9867    2.6940 H         1 <0>         0.1599
     42 H8         -1.1204    3.9239    2.3064 H         1 <0>         0.1346
     43 H9         -5.4105    0.9130    3.3243 H         1 <0>         0.4405
     44 H10         0.3469   -0.2644    0.1786 H         1 <0>         0.1115
     45 H11         1.5135    1.0772    0.2660 H         1 <0>         0.1373
     46 H12        -1.0566    1.0576   -1.3806 H         1 <0>         0.0928
     47 H13         0.1099    2.3992   -1.2932 H         1 <0>         0.1138
     48 H14        -0.1224    1.5871   -3.8523 H         1 <0>         0.4045
     49 H15         1.1114    0.5444   -4.3140 H         1 <0>         0.4120
     50 H16         0.8424    2.5506    6.8356 H         1 <0>         0.1369
     51 H17         1.5705    4.4404    8.2271 H         1 <0>         0.1422
     52 H18         1.0564    7.0842    4.8867 H         1 <0>         0.1527
     53 H19         0.3381    5.1856    3.5023 H         1 <0>         0.1325
     54 H20         2.0883    5.9350    9.1527 H         1 <0>         0.4019
     55 H21         2.4123    7.5749    9.3217 H         1 <0>         0.4122
     56 N5         -1.7586    0.9988    1.1986 N.4       1 <0>        -0.4901
     57 H22        -2.3017    1.5250    0.5041 H         1 <0>         0.4472
     58 H23        -1.7857   -0.0013    0.9680 H         1 <0>         0.4472
@<TRIPOS>BOND
     1    1    2 1
     2    1   38 1
     3    1   39 1
     4    1   40 1
     5    2    7 ar
     6    2    3 ar
     7    3    4 ar
     8    3   37 1
     9    4    5 ar
    10    4   41 1
    11    5    6 ar
    12    5   42 1
    13    6   11 1
    14    6    7 ar
    15    7    8 1
    16    8    9 am
    17    8   43 1
    18    9   10 2
    19    9   11 1
    20   11   12 1
    21   11   56 1
    22   12   13 1
    23   12   26 1
    24   12   14 1
    25   14   15 1
    26   14   16 1
    27   14   23 1
    28   16   17 1
    29   16   18 1
    30   16   56 1
    31   18   19 1
    32   18   44 1
    33   18   45 1
    34   19   20 1
    35   19   46 1
    36   19   47 1
    37   20   21 2
    38   20   22 am
    39   22   48 1
    40   22   49 1
    41   23   24 2
    42   23   25 am
    43   25   26 am
    44   25   28 1
    45   26   27 2
    46   28   33 ar
    47   28   29 ar
    48   29   30 ar
    49   29   50 1
    50   30   31 ar
    51   30   51 1
    52   31   32 ar
    53   31   34 1
    54   32   33 ar
    55   32   52 1
    56   33   53 1
    57   34   35 2
    58   34   36 am
    59   36   54 1
    60   36   55 1
    61   56   57 1
    62   56   58 1
