@<TRIPOS>MOLECULE
ZINC12880296
   45    46     0     0     0
SMALL
USER_CHARGES
[(1R)-2-[(4-carbamoylphenyl)amino]-1-methyl-2-oxo-ethyl] 4-amino-5-chloro-2-methoxy-benzoate
@<TRIPOS>ATOM
      1 C1          1.7314   -4.6508   -1.5690 C.3       1 <0>        -0.1671
      2 C2          2.4077   -4.2416   -0.2590 C.3       1 <0>         0.0763
      3 H1          1.8663   -4.6771    0.5809 H         1 <0>         0.1160
      4 C3          2.3998   -2.7396   -0.1373 C.2       1 <0>         0.5179
      5 O1          3.4453   -2.1251   -0.1442 O.2       1 <0>        -0.4862
      6 N1          1.2307   -2.0791   -0.0209 N.am      1 <0>        -0.6698
      7 C4          1.2148   -0.6848   -0.0191 C.ar      1 <0>         0.1773
      8 C5          2.1410    0.0209   -0.7807 C.ar      1 <0>        -0.1298
      9 C6          2.1280    1.3975   -0.7812 C.ar      1 <0>        -0.0347
     10 C7          1.1832    2.0861   -0.0157 C.ar      1 <0>        -0.1573
     11 C8          0.2547    1.3742    0.7485 C.ar      1 <0>        -0.0635
     12 C9          0.2731   -0.0023    0.7446 C.ar      1 <0>        -0.1530
     13 C10         1.1667    3.5620   -0.0134 C.2       1 <0>         0.5645
     14 O2          1.9757    4.1800   -0.6782 O.2       1 <0>        -0.5391
     15 N2          0.2549    4.2246    0.7254 N.am      1 <0>        -0.8519
     16 O3          3.7785   -4.7205   -0.2518 O.3       1 <0>        -0.3290
     17 C11         3.9948   -5.9493    0.2586 C.2       1 <0>         0.5197
     18 O4          3.0630   -6.6026    0.6859 O.2       1 <0>        -0.4922
     19 C12         5.3580   -6.4995    0.2984 C.ar      1 <0>        -0.2161
     20 C13         6.4322   -5.7516   -0.1984 C.ar      1 <0>         0.0372
     21 C14         7.6980   -6.2610   -0.1567 C.ar      1 <0>        -0.1634
     22 C15         7.9291   -7.5318    0.3700 C.ar      1 <0>         0.3069
     23 C16         6.8727   -8.2879    0.8618 C.ar      1 <0>        -0.3010
     24 C17         5.5862   -7.7791    0.8294 C.ar      1 <0>         0.2492
     25 O5          4.5506   -8.5129    1.3088 O.3       1 <0>        -0.2784
     26 C18         4.8596   -9.8056    1.8335 C.3       1 <0>         0.0187
     27 N3          9.2219   -8.0439    0.4024 N.pl3     1 <0>        -0.8510
     28 Cl1         9.0260   -5.3252   -0.7685 Cl        1 <0>        -0.0606
     29 H2          2.2728   -4.2153   -2.4088 H         1 <0>         0.0763
     30 H3          1.7372   -5.7372   -1.6570 H         1 <0>         0.0816
     31 H4          0.7024   -4.2913   -1.5744 H         1 <0>         0.0820
     32 H5          0.4004   -2.5737    0.0617 H         1 <0>         0.4157
     33 H6          2.8707   -0.5119   -1.3724 H         1 <0>         0.1432
     34 H7          2.8501    1.9447   -1.3691 H         1 <0>         0.1420
     35 H8         -0.4768    1.9034    1.3413 H         1 <0>         0.1318
     36 H9         -0.4445   -0.5531    1.3346 H         1 <0>         0.1350
     37 H10        -0.3906    3.7315    1.2558 H         1 <0>         0.4004
     38 H11         0.2440    5.1945    0.7269 H         1 <0>         0.4061
     39 H12         6.2597   -4.7688   -0.6117 H         1 <0>         0.1569
     40 H13         7.0553   -9.2713    1.2693 H         1 <0>         0.1466
     41 H14         5.5559   -9.7030    2.6659 H         1 <0>         0.0603
     42 H15         3.9446  -10.2844    2.1822 H         1 <0>         0.1066
     43 H16         5.3141  -10.4155    1.0528 H         1 <0>         0.0604
     44 H17         9.3845   -8.9275    0.7680 H         1 <0>         0.4071
     45 H18         9.9608   -7.5174    0.0594 H         1 <0>         0.4082
@<TRIPOS>BOND
     1    1    2 1
     2    1   29 1
     3    1   30 1
     4    1   31 1
     5    2    3 1
     6    2    4 1
     7    2   16 1
     8    4    5 2
     9    4    6 am
    10    6    7 1
    11    6   32 1
    12    7   12 ar
    13    7    8 ar
    14    8    9 ar
    15    8   33 1
    16    9   10 ar
    17    9   34 1
    18   10   11 ar
    19   10   13 1
    20   11   12 ar
    21   11   35 1
    22   12   36 1
    23   13   14 2
    24   13   15 am
    25   15   37 1
    26   15   38 1
    27   16   17 1
    28   17   18 2
    29   17   19 1
    30   19   24 ar
    31   19   20 ar
    32   20   21 ar
    33   20   39 1
    34   21   22 ar
    35   21   28 1
    36   22   23 ar
    37   22   27 1
    38   23   24 ar
    39   23   40 1
    40   24   25 1
    41   25   26 1
    42   26   41 1
    43   26   42 1
    44   26   43 1
    45   27   44 1
    46   27   45 1
