@<TRIPOS>MOLECULE
ZINC49234469
   34    35     0     0     0
SMALL
USER_CHARGES

@<TRIPOS>ATOM
      1 C1         -0.0187    1.5258    0.0104 C.3       1 <0>        -0.1538
      2 C2          0.0021   -0.0041    0.0020 C.3       1 <0>        -0.0415
      3 C3          0.7421   -0.5109    1.2415 C.3       1 <0>        -0.1538
      4 C4         -1.4117   -0.5257    0.0127 C.2       1 <0>         0.0978
      5 C5         -1.8430   -1.2969   -0.9853 C.2       1 <0>        -0.1896
      6 S1         -3.5287   -1.6310   -0.5004 S.3       1 <0>        -0.0227
      7 C6         -3.5329   -0.7006    1.0246 C.2       1 <0>         0.5032
      8 N1         -2.2445   -0.2118    1.0466 N.pl3     1 <0>        -0.6040
      9 N2         -4.5002   -0.5322    1.8922 N.2       1 <0>        -0.9690
     10 S2         -5.9748   -1.2409    1.6362 S.o2      1 <0>         2.6469
     11 O1         -6.5290   -0.6205    0.4842 O.2       1 <0>        -0.9663
     12 O2         -5.7712   -2.6446    1.7220 O.2       1 <0>        -0.9662
     13 C7         -7.0082   -0.7980    2.9929 C.ar      1 <0>        -0.6964
     14 C8         -7.0438   -1.5956    4.1220 C.ar      1 <0>         0.0310
     15 C9         -7.8527   -1.2515    5.1872 C.ar      1 <0>        -0.2177
     16 C10        -8.6310   -0.1026    5.1235 C.ar      1 <0>         0.2695
     17 C11        -8.5928    0.6963    3.9878 C.ar      1 <0>        -0.2178
     18 C12        -7.7774    0.3493    2.9284 C.ar      1 <0>         0.0310
     19 N3         -9.4505    0.2482    6.1988 N.pl3     1 <0>        -0.8655
     20 H1          1.0039    1.9031    0.0027 H         1 <0>         0.0726
     21 H2         -0.5459    1.8868   -0.8726 H         1 <0>         0.0654
     22 H3         -0.5289    1.8773    0.9072 H         1 <0>         0.0560
     23 H4          0.5123   -0.3556   -0.8948 H         1 <0>         0.1084
     24 H5          0.7568   -1.6008    1.2356 H         1 <0>         0.0654
     25 H6          1.7647   -0.1336    1.2338 H         1 <0>         0.0726
     26 H7          0.2319   -0.1594    2.1383 H         1 <0>         0.0560
     27 H8         -1.3098   -1.6329   -1.8624 H         1 <0>         0.2110
     28 H9         -6.4387   -2.4889    4.1708 H         1 <0>         0.1402
     29 H10        -7.8803   -1.8750    6.0686 H         1 <0>         0.1324
     30 H11        -9.1969    1.5899    3.9348 H         1 <0>         0.1324
     31 H12        -7.7439    0.9724    2.0469 H         1 <0>         0.1403
     32 H13        -9.4766   -0.3107    6.9912 H         1 <0>         0.4036
     33 H14        -9.9935    1.0506    6.1531 H         1 <0>         0.4036
     34 H15        -1.9378    0.3455    1.7789 H         1 <0>         0.4252
@<TRIPOS>BOND
     1    1    2 1
     2    1   20 1
     3    1   21 1
     4    1   22 1
     5    2    3 1
     6    2    4 1
     7    2   23 1
     8    3   24 1
     9    3   25 1
    10    3   26 1
    11    4    8 1
    12    4    5 2
    13    5    6 1
    14    5   27 1
    15    6    7 1
    16    7    8 1
    17    7    9 2
    18    8   34 1
    19    9   10 1
    20   10   11 2
    21   10   12 2
    22   10   13 1
    23   13   18 ar
    24   13   14 ar
    25   14   15 ar
    26   14   28 1
    27   15   16 ar
    28   15   29 1
    29   16   17 ar
    30   16   19 1
    31   17   18 ar
    32   17   30 1
    33   18   31 1
    34   19   32 1
    35   19   33 1
