@<TRIPOS>MOLECULE
ZINC11737031
   37    38     0     0     0
SMALL
USER_CHARGES
8-amino-N-tert-butyl-2,3-dihydro-1,4-benzodioxine-6-sulfonamide
@<TRIPOS>ATOM
      1 C1          3.1930   -0.6688    2.0690 C.3       1 <0>        -0.1896
      2 C2          4.0241   -1.9508    2.1524 C.3       1 <0>         0.1738
      3 C3          4.4817   -2.1688    3.5960 C.3       1 <0>        -0.1501
      4 C4          5.2480   -1.8253    1.2429 C.3       1 <0>        -0.1807
      5 N1          3.2097   -3.0896    1.7210 N.pl3     1 <0>        -1.1071
      6 S1          2.5295   -3.0964    0.2112 S.o2      1 <0>         2.6988
      7 O1          1.8233   -4.3235    0.0895 O.2       1 <0>        -0.9573
      8 O2          3.5529   -2.7130   -0.6970 O.2       1 <0>        -0.9506
      9 C5          1.3211   -1.8145    0.1785 C.ar      1 <0>        -0.6200
     10 C6          1.5933   -0.6269   -0.4743 C.ar      1 <0>        -0.1061
     11 C7          0.6439    0.3847   -0.5001 C.ar      1 <0>         0.2150
     12 C8         -0.5815    0.2046    0.1373 C.ar      1 <0>         0.0239
     13 C9         -0.8532   -0.9927    0.7830 C.ar      1 <0>         0.0776
     14 C10         0.1036   -1.9991    0.8050 C.ar      1 <0>        -0.0676
     15 O3         -2.0487   -1.1950    1.4016 O.3       1 <0>        -0.3013
     16 C11        -2.8348   -0.0313    1.6803 C.3       1 <0>         0.0194
     17 C12        -2.8547    0.8479    0.4225 C.3       1 <0>         0.0213
     18 O4         -1.5052    1.2053    0.1048 O.3       1 <0>        -0.3070
     19 N2          0.9194    1.5873   -1.1613 N.pl3     1 <0>        -0.8663
     20 H1          2.2344   -0.8244    2.5638 H         1 <0>         0.0676
     21 H2          3.7281    0.1437    2.5606 H         1 <0>         0.0759
     22 H3          3.0246   -0.4125    1.0230 H         1 <0>         0.0710
     23 H4          5.0738   -3.0820    3.6555 H         1 <0>         0.0651
     24 H5          5.0876   -1.3214    3.9170 H         1 <0>         0.0725
     25 H6          3.6098   -2.2582    4.2440 H         1 <0>         0.0635
     26 H7          4.9307   -1.5132    0.2479 H         1 <0>         0.0875
     27 H8          5.9325   -1.0840    1.6551 H         1 <0>         0.0673
     28 H9          5.7525   -2.7893    1.1777 H         1 <0>         0.0649
     29 H10         3.0690   -3.8397    2.3198 H         1 <0>         0.4192
     30 H11         2.5455   -0.4861   -0.9641 H         1 <0>         0.1519
     31 H12        -0.1049   -2.9291    1.3130 H         1 <0>         0.1450
     32 H13        -3.8517   -0.3277    1.9378 H         1 <0>         0.1262
     33 H14        -2.3918    0.5219    2.5084 H         1 <0>         0.0803
     34 H15        -3.2932    0.2931   -0.4070 H         1 <0>         0.0803
     35 H16        -3.4386    1.7485    0.6126 H         1 <0>         0.1255
     36 H17         1.7744    1.7138   -1.6016 H         1 <0>         0.4041
     37 H18         0.2539    2.2926   -1.1825 H         1 <0>         0.4060
@<TRIPOS>BOND
     1    1    2 1
     2    1   20 1
     3    1   21 1
     4    1   22 1
     5    2    3 1
     6    2    4 1
     7    2    5 1
     8    3   23 1
     9    3   24 1
    10    3   25 1
    11    4   26 1
    12    4   27 1
    13    4   28 1
    14    5    6 1
    15    5   29 1
    16    6    7 2
    17    6    8 2
    18    6    9 1
    19    9   14 ar
    20    9   10 ar
    21   10   11 ar
    22   10   30 1
    23   11   12 ar
    24   11   19 1
    25   12   18 1
    26   12   13 ar
    27   13   14 ar
    28   13   15 1
    29   14   31 1
    30   15   16 1
    31   16   17 1
    32   16   32 1
    33   16   33 1
    34   17   18 1
    35   17   34 1
    36   17   35 1
    37   19   36 1
    38   19   37 1
