@<TRIPOS>MOLECULE
ZINC23948815
   56    59     0     0     0
SMALL
USER_CHARGES
N-[(4S)-4-methyl-2,5-dioxo-4-phenethyl-imidazolidin-1-yl]-2-(4-oxo-2,3-dihydro-1,5-benzoxazepin-5-yl)acetamide
@<TRIPOS>ATOM
      1 C1         -0.0127    1.0858    0.0080 C.3       1 <0>        -0.1531
      2 C2         -0.7288    1.5792    1.2668 C.3       1 <0>         0.1235
      3 C3         -0.6545    3.0900    1.3651 C.2       1 <0>         0.5310
      4 O1         -1.1035    3.8979    0.5804 O.2       1 <0>        -0.4534
      5 N1          0.0152    3.3485    2.5056 N.am      1 <0>        -0.3723
      6 C4          0.3707    2.2227    3.1351 C.2       1 <0>         0.7156
      7 O2          0.9839    2.1999    4.1842 O.2       1 <0>        -0.5240
      8 N2         -0.0264    1.1186    2.4769 N.am      1 <0>        -0.7244
      9 N3          0.3043    4.6369    2.9739 N.am      1 <0>        -0.5195
     10 C5          1.5557    5.1265    2.8704 C.2       1 <0>         0.5034
     11 O3          2.4315    4.4519    2.3719 O.2       1 <0>        -0.4898
     12 C6          1.8666    6.5124    3.3741 C.3       1 <0>         0.1072
     13 N4          3.2836    6.8076    3.1483 N.am      1 <0>        -0.5434
     14 C7          3.6999    7.4059    1.9512 C.ar      1 <0>         0.1100
     15 C8          3.0542    8.5291    1.4611 C.ar      1 <0>        -0.1190
     16 C9          3.4752    9.1023    0.2753 C.ar      1 <0>        -0.1065
     17 C10         4.5384    8.5573   -0.4208 C.ar      1 <0>        -0.1073
     18 C11         5.1886    7.4374    0.0645 C.ar      1 <0>        -0.1156
     19 C12         4.7744    6.8585    1.2522 C.ar      1 <0>         0.0958
     20 O4          5.4101    5.7624    1.7433 O.3       1 <0>        -0.3162
     21 C13         6.2864    5.9594    2.8499 C.3       1 <0>         0.0726
     22 C14         5.6449    6.8872    3.8796 C.3       1 <0>        -0.1815
     23 C15         4.2021    6.5107    4.0950 C.2       1 <0>         0.5330
     24 O5          3.8669    5.9400    5.1114 O.2       1 <0>        -0.5115
     25 C16        -2.1840    1.1068    1.2764 C.3       1 <0>        -0.1073
     26 C17        -2.2239   -0.4205    1.3579 C.3       1 <0>        -0.0800
     27 C18        -3.6572   -0.8858    1.3673 C.ar      1 <0>        -0.0854
     28 C19        -4.3257   -1.0406    2.5673 C.ar      1 <0>        -0.1161
     29 C20        -5.6418   -1.4633    2.5758 C.ar      1 <0>        -0.1179
     30 C21        -6.2865   -1.7403    1.3848 C.ar      1 <0>        -0.1218
     31 C22        -5.6165   -1.5901    0.1850 C.ar      1 <0>        -0.1177
     32 C23        -4.3017   -1.1633    0.1763 C.ar      1 <0>        -0.1151
     33 H1         -0.5519    1.4397   -0.8831 H         1 <0>         0.0865
     34 H2          0.0133   -0.0139    0.0082 H         1 <0>         0.0872
     35 H3          1.0153    1.4768   -0.0061 H         1 <0>         0.0707
     36 H4          0.0780    0.0418    2.6759 H         1 <0>         0.4709
     37 H5         -0.4901    5.2489    3.4261 H         1 <0>         0.4509
     38 H6          1.2489    7.2456    2.8349 H         1 <0>         0.1229
     39 H7          1.6472    6.5691    4.4505 H         1 <0>         0.1305
     40 H8          2.2237    8.9560    2.0038 H         1 <0>         0.1332
     41 H9          2.9726    9.9780   -0.1080 H         1 <0>         0.1341
     42 H10         4.8621    9.0077   -1.3475 H         1 <0>         0.1337
     43 H11         6.0184    7.0146   -0.4824 H         1 <0>         0.1370
     44 H12         6.5003    4.9907    3.3252 H         1 <0>         0.1107
     45 H13         7.2259    6.4105    2.4979 H         1 <0>         0.0757
     46 H14         6.1843    6.8038    4.8346 H         1 <0>         0.1221
     47 H15         5.6953    7.9254    3.5195 H         1 <0>         0.0985
     48 H16        -2.7025    1.5341    2.1474 H         1 <0>         0.0773
     49 H17        -2.6831    1.4379    0.3538 H         1 <0>         0.0940
     50 H18        -1.7054   -0.8478    0.4870 H         1 <0>         0.0844
     51 H19        -1.7248   -0.7516    2.2806 H         1 <0>         0.0764
     52 H20        -3.8208   -0.8281    3.4981 H         1 <0>         0.1210
     53 H21        -6.1654   -1.5803    3.5131 H         1 <0>         0.1220
     54 H22        -7.3137   -2.0738    1.3916 H         1 <0>         0.1216
     55 H23        -6.1201   -1.8066   -0.7455 H         1 <0>         0.1226
     56 H24        -3.7781   -1.0463   -0.7610 H         1 <0>         0.1229
@<TRIPOS>BOND
     1    1    2 1
     2    1   33 1
     3    1   34 1
     4    1   35 1
     5    2    8 1
     6    2    3 1
     7    2   25 1
     8    3    4 2
     9    3    5 am
    10    5    6 am
    11    5    9 1
    12    6    7 2
    13    6    8 am
    14    8   36 1
    15    9   10 am
    16    9   37 1
    17   10   11 2
    18   10   12 1
    19   12   13 1
    20   12   38 1
    21   12   39 1
    22   13   23 am
    23   13   14 1
    24   14   19 ar
    25   14   15 ar
    26   15   16 ar
    27   15   40 1
    28   16   17 ar
    29   16   41 1
    30   17   18 ar
    31   17   42 1
    32   18   19 ar
    33   18   43 1
    34   19   20 1
    35   20   21 1
    36   21   22 1
    37   21   44 1
    38   21   45 1
    39   22   23 1
    40   22   46 1
    41   22   47 1
    42   23   24 2
    43   25   26 1
    44   25   48 1
    45   25   49 1
    46   26   27 1
    47   26   50 1
    48   26   51 1
    49   27   32 ar
    50   27   28 ar
    51   28   29 ar
    52   28   52 1
    53   29   30 ar
    54   29   53 1
    55   30   31 ar
    56   30   54 1
    57   31   32 ar
    58   31   55 1
    59   32   56 1
