@<TRIPOS>MOLECULE
ZINC46849220
   40    43     0     0     0
SMALL
USER_CHARGES

@<TRIPOS>ATOM
      1 C1         -0.0184    1.5028    0.0103 C.3       1 <0>        -0.0805
      2 C2          0.0021   -0.0041    0.0020 C.2       1 <0>         0.0893
      3 C3          0.0059   -0.7049   -1.1572 C.2       1 <0>        -0.1967
      4 S1          0.0324   -2.3783   -0.5355 S.3       1 <0>         0.1963
      5 C4          0.0358   -2.0164    1.1081 C.2       1 <0>         0.0026
      6 N1          0.0227   -0.6998    1.1250 N.2       1 <0>        -0.5107
      7 S2          0.0583   -3.1289    2.4743 S.3       1 <0>         0.0461
      8 C5          0.0506   -2.0412    3.9261 C.3       1 <0>        -0.0233
      9 C6          0.0687   -2.8769    5.1800 C.2       1 <0>         0.1831
     10 N2         -0.9714   -3.3267    5.8280 N.2       1 <0>        -0.2183
     11 N3         -0.5939   -4.0041    6.8537 N.2       1 <0>        -0.2830
     12 C7          0.7195   -4.0235    6.9162 C.2       1 <0>         0.4279
     13 N4          1.1745   -3.3112    5.8488 N.pl3     1 <0>        -0.4138
     14 C8          2.5477   -3.1444    5.6202 C.2       1 <0>         0.1635
     15 C9          3.2062   -2.4586    4.6026 C.2       1 <0>        -0.1887
     16 C10         4.5561   -2.4288    4.5797 C.2       1 <0>        -0.1954
     17 S3          5.0168   -3.3222    5.9267 S.3       1 <0>         0.3815
     18 C11         3.4090   -3.7477    6.5386 C.2       1 <0>        -0.3180
     19 C12         2.9275   -4.4810    7.6310 C.2       1 <0>         0.6042
     20 O1          3.7052   -4.9955    8.4150 O.2       1 <0>        -0.4965
     21 N5          1.5942   -4.6066    7.8138 N.am      1 <0>        -0.5006
     22 C13         1.0776   -5.3732    8.9504 C.3       1 <0>         0.0834
     23 C14        -0.0088   -0.2087   -2.5801 C.3       1 <0>        -0.0503
     24 C15         1.4070   -0.0231   -3.0620 C.2       1 <0>         0.5165
     25 O2          2.3364   -0.2695   -2.3228 O.2       1 <0>        -0.5299
     26 N6          1.6404    0.4168   -4.3144 N.am      1 <0>        -0.8548
     27 H1          1.0042    1.8801    0.0026 H         1 <0>         0.0773
     28 H2         -0.5455    1.8639   -0.8728 H         1 <0>         0.0741
     29 H3         -0.5286    1.8543    0.9071 H         1 <0>         0.0766
     30 H4          0.9317   -1.3998    3.9042 H         1 <0>         0.1170
     31 H5         -0.8481   -1.4246    3.9133 H         1 <0>         0.1395
     32 H6          2.6396   -1.9530    3.8347 H         1 <0>         0.1495
     33 H7          5.1953   -1.9412    3.8585 H         1 <0>         0.2115
     34 H8          0.9644   -6.4183    8.6623 H         1 <0>         0.0801
     35 H9          1.7748   -5.2998    9.7850 H         1 <0>         0.0999
     36 H10         0.1094   -4.9718    9.2494 H         1 <0>         0.0971
     37 H11        -0.5157   -0.9366   -3.2136 H         1 <0>         0.1133
     38 H12        -0.5365    0.7439   -2.6273 H         1 <0>         0.1218
     39 H13         0.8970    0.6138   -4.9056 H         1 <0>         0.4034
     40 H14         2.5516    0.5363   -4.6246 H         1 <0>         0.4052
@<TRIPOS>BOND
     1    1    2 1
     2    1   27 1
     3    1   28 1
     4    1   29 1
     5    2    6 1
     6    2    3 2
     7    3    4 1
     8    3   23 1
     9    4    5 1
    10    5    6 2
    11    5    7 1
    12    7    8 1
    13    8    9 1
    14    8   30 1
    15    8   31 1
    16    9   13 1
    17    9   10 2
    18   10   11 1
    19   11   12 2
    20   12   21 1
    21   12   13 1
    22   13   14 1
    23   14   18 2
    24   14   15 1
    25   15   16 2
    26   15   32 1
    27   16   17 1
    28   16   33 1
    29   17   18 1
    30   18   19 1
    31   19   20 2
    32   19   21 am
    33   21   22 1
    34   22   34 1
    35   22   35 1
    36   22   36 1
    37   23   24 1
    38   23   37 1
    39   23   38 1
    40   24   25 2
    41   24   26 am
    42   26   39 1
    43   26   40 1
