@<TRIPOS>MOLECULE
ZINC66533449
   56    58     0     0     0
SMALL
USER_CHARGES

@<TRIPOS>ATOM
      1 C1          1.6534    1.0553    0.6411 C.3       1 <0>         0.0208
      2 O1          1.1151   -0.2502    0.4225 O.3       1 <0>        -0.3092
      3 C2          1.1587   -0.7310   -0.8486 C.ar      1 <0>         0.1532
      4 C3          1.7126    0.0344   -1.8620 C.ar      1 <0>        -0.1871
      5 C4          1.7563   -0.4559   -3.1539 C.ar      1 <0>        -0.0259
      6 C5          1.2480   -1.7099   -3.4391 C.ar      1 <0>        -0.0653
      7 C6          0.6942   -2.4797   -2.4339 C.ar      1 <0>        -0.0368
      8 C7          0.6517   -1.9967   -1.1341 C.ar      1 <0>         0.1185
      9 N1          0.0951   -2.7774   -0.1123 N.am      1 <0>        -0.6585
     10 C8          0.0602   -4.1193   -0.2326 C.2       1 <0>         0.5129
     11 O2          0.5992   -4.6579   -1.1764 O.2       1 <0>        -0.5128
     12 C9         -0.6484   -4.9507    0.8055 C.3       1 <0>        -0.1353
     13 C10        -0.5397   -6.4311    0.4346 C.3       1 <0>         0.0687
     14 N2         -1.2305   -7.2415    1.4465 N.3       1 <0>        -0.5409
     15 C11        -0.5524   -7.1508    2.7459 C.3       1 <0>         0.0490
     16 C12        -1.3767   -7.8857    3.8053 C.3       1 <0>        -0.1354
     17 C13        -1.5374   -9.3518    3.3936 C.3       1 <0>         0.0274
     18 C14        -2.2021   -9.4169    2.0158 C.3       1 <0>        -0.1350
     19 C15        -1.3538   -8.6376    1.0082 C.3       1 <0>         0.0571
     20 N3         -2.3769  -10.0487    4.3771 N.4       1 <0>        -0.3917
     21 C16        -2.4708  -11.4920    4.0392 C.3       1 <0>        -0.0061
     22 C17        -2.8628  -12.1471    5.3875 C.3       1 <0>        -0.1454
     23 C18        -2.0580  -11.3234    6.4189 C.3       1 <0>        -0.1449
     24 C19        -1.7514   -9.9879    5.7160 C.3       1 <0>        -0.0088
     25 N4          1.2968   -2.2287   -4.8245 N.pl3     1 <0>         0.0375
     26 O3          1.7806   -1.5562   -5.7051 O.2       1 <0>        -0.1556
     27 O4          0.8529   -3.3248   -5.0755 O.3       1 <0>        -0.1546
     28 H1          2.7065    1.0659    0.3600 H         1 <0>         0.0658
     29 H2          1.1084    1.7792    0.0353 H         1 <0>         0.0664
     30 H3          1.5561    1.3167    1.6948 H         1 <0>         0.1116
     31 H4          2.1101    1.0143   -1.6427 H         1 <0>         0.1593
     32 H5          2.1881    0.1423   -3.9426 H         1 <0>         0.1611
     33 H6          0.2977   -3.4587   -2.6595 H         1 <0>         0.1809
     34 H7         -0.2651   -2.3521    0.6815 H         1 <0>         0.4217
     35 H8         -0.1879   -4.7855    1.7796 H         1 <0>         0.0986
     36 H9         -1.6988   -4.6626    0.8467 H         1 <0>         0.1123
     37 H10        -1.0002   -6.5963   -0.5395 H         1 <0>         0.0949
     38 H11         0.5107   -6.7192    0.3934 H         1 <0>         0.0534
     39 H12         0.4348   -7.6070    2.6730 H         1 <0>         0.0481
     40 H13        -0.4483   -6.1033    3.0289 H         1 <0>         0.0975
     41 H14        -0.8654   -7.8316    4.7664 H         1 <0>         0.0913
     42 H15        -2.3594   -7.4214    3.8886 H         1 <0>         0.0956
     43 H16        -0.5574   -9.8268    3.3481 H         1 <0>         0.1328
     44 H17        -2.2804  -10.4567    1.6983 H         1 <0>         0.0925
     45 H18        -3.1977   -8.9766    2.0709 H         1 <0>         0.0958
     46 H19        -1.8318   -8.6699    0.0291 H         1 <0>         0.1000
     47 H20        -0.3628   -9.0868    0.9434 H         1 <0>         0.0487
     48 H21        -3.2438  -11.6622    3.2898 H         1 <0>         0.1355
     49 H22        -1.5085  -11.8696    3.6934 H         1 <0>         0.1323
     50 H23        -3.9335  -12.0495    5.5669 H         1 <0>         0.0982
     51 H24        -2.5607  -13.1941    5.4099 H         1 <0>         0.1164
     52 H25        -2.6551  -11.1512    7.3144 H         1 <0>         0.1050
     53 H26        -1.1316  -11.8380    6.6741 H         1 <0>         0.1031
     54 H27        -0.6735   -9.8595    5.6167 H         1 <0>         0.1285
     55 H28        -2.1755   -9.1619    6.2868 H         1 <0>         0.1313
     56 H29        -3.2973   -9.6361    4.4041 H         1 <0>         0.4255
@<TRIPOS>BOND
     1    1    2 1
     2    1   28 1
     3    1   29 1
     4    1   30 1
     5    2    3 1
     6    3    8 ar
     7    3    4 ar
     8    4    5 ar
     9    4   31 1
    10    5    6 ar
    11    5   32 1
    12    6    7 ar
    13    6   25 1
    14    7    8 ar
    15    7   33 1
    16    8    9 1
    17    9   10 am
    18    9   34 1
    19   10   11 2
    20   10   12 1
    21   12   13 1
    22   12   35 1
    23   12   36 1
    24   13   14 1
    25   13   37 1
    26   13   38 1
    27   14   19 1
    28   14   15 1
    29   15   16 1
    30   15   39 1
    31   15   40 1
    32   16   17 1
    33   16   41 1
    34   16   42 1
    35   17   18 1
    36   17   20 1
    37   17   43 1
    38   18   19 1
    39   18   44 1
    40   18   45 1
    41   19   46 1
    42   19   47 1
    43   20   24 1
    44   20   21 1
    45   20   56 1
    46   21   22 1
    47   21   48 1
    48   21   49 1
    49   22   23 1
    50   22   50 1
    51   22   51 1
    52   23   24 1
    53   23   52 1
    54   23   53 1
    55   24   54 1
    56   24   55 1
    57   25   26 2
    58   25   27 1
