@<TRIPOS>MOLECULE
ZINC02616716
   58    60     0     0     0
SMALL
USER_CHARGES
N-(2-chloro-5-nitro-phenyl)-2-[4-(3,4-dimethylphenyl)sulfonylpiperazin-1-yl]-propanamide
@<TRIPOS>ATOM
      1 C1         -9.4110   -4.0196   -6.9483 C.3       1 <0>        -0.1351
      2 C2         -8.6046   -4.5658   -5.7984 C.ar      1 <0>        -0.0196
      3 C3         -9.2457   -5.0593   -4.6772 C.ar      1 <0>        -0.1343
      4 C4         -8.5061   -5.5646   -3.6246 C.ar      1 <0>        -0.0264
      5 C5         -7.1250   -5.5666   -3.6882 C.ar      1 <0>        -0.6877
      6 C6         -6.4841   -5.0733   -4.8090 C.ar      1 <0>        -0.0213
      7 C7         -7.2240   -4.5731   -5.8643 C.ar      1 <0>        -0.1016
      8 C8         -6.5252   -4.0352   -7.0864 C.3       1 <0>        -0.1257
      9 S1         -6.1821   -6.2046   -2.3434 S.o2      1 <0>         2.6872
     10 O1         -4.9267   -6.5999   -2.8791 O.2       1 <0>        -0.9345
     11 O2         -7.0298   -7.1057   -1.6444 O.2       1 <0>        -0.9354
     12 N1         -5.8813   -4.9428   -1.3141 N.pl3     1 <0>        -1.0123
     13 C9         -6.8100   -4.6238   -0.2191 C.3       1 <0>         0.0971
     14 C10        -7.1508   -3.1315   -0.2890 C.3       1 <0>        -0.0202
     15 C11        -5.1028   -2.6393   -1.4909 C.3       1 <0>        -0.0365
     16 C12        -4.6780   -4.1115   -1.4703 C.3       1 <0>         0.1010
     17 C13        -6.1906   -0.9109   -0.1902 C.3       1 <0>         0.0131
     18 H1         -6.7984   -0.7250    0.6953 H         1 <0>         0.1720
     19 C14        -6.9483   -0.4461   -1.4355 C.3       1 <0>        -0.1820
     20 C15        -4.8941   -0.1510   -0.0782 C.2       1 <0>         0.5098
     21 O3         -3.8384   -0.7481   -0.0866 O.2       1 <0>        -0.4984
     22 N2         -4.9076    1.1923    0.0313 N.am      1 <0>        -0.6417
     23 C16        -3.7034    1.9059    0.0408 C.ar      1 <0>         0.1358
     24 C17        -2.5752    1.3590    0.6375 C.ar      1 <0>        -0.0456
     25 C18        -1.3883    2.0653    0.6449 C.ar      1 <0>        -0.0204
     26 C19        -1.3236    3.3186    0.0639 C.ar      1 <0>        -0.0402
     27 C20        -2.4432    3.8644   -0.5363 C.ar      1 <0>        -0.0838
     28 C21        -3.6343    3.1629   -0.5472 C.ar      1 <0>        -0.0115
     29 Cl1        -5.0416    3.8513   -1.2952 Cl        1 <0>        -0.0222
     30 N3         -0.1855    1.4826    1.2809 N.pl3     1 <0>         0.0212
     31 O4         -0.2428    0.3809    1.7973 O.2       1 <0>        -0.1444
     32 O5          0.8629    2.1026    1.2835 O.3       1 <0>        -0.1343
     33 H2         -9.6307   -4.8227   -7.6518 H         1 <0>         0.0865
     34 H3        -10.3443   -3.6014   -6.5713 H         1 <0>         0.0756
     35 H4         -8.8413   -3.2397   -7.4535 H         1 <0>         0.0797
     36 H5        -10.3244   -5.0533   -4.6255 H         1 <0>         0.1371
     37 H6         -9.0070   -5.9542   -2.7506 H         1 <0>         0.1403
     38 H7         -5.4054   -5.0790   -4.8605 H         1 <0>         0.1397
     39 H8         -6.3816   -4.8405   -7.8068 H         1 <0>         0.0809
     40 H9         -7.1325   -3.2496   -7.5359 H         1 <0>         0.0769
     41 H10        -5.5561   -3.6265   -6.8004 H         1 <0>         0.0707
     42 H11        -6.3384   -4.8473    0.7378 H         1 <0>         0.1076
     43 H12        -7.7206   -5.2129   -0.3281 H         1 <0>         0.1386
     44 H13        -7.7497   -2.8541    0.5785 H         1 <0>         0.1477
     45 H14        -7.7141   -2.9293   -1.2000 H         1 <0>         0.1400
     46 H15        -5.6945   -2.4439   -2.3852 H         1 <0>         0.1350
     47 H16        -4.2163   -2.0050   -1.4952 H         1 <0>         0.1612
     48 H17        -4.0014   -4.2857   -0.6336 H         1 <0>         0.1083
     49 H18        -4.1772   -4.3642   -2.4049 H         1 <0>         0.1360
     50 H19        -6.3405   -0.6320   -2.3211 H         1 <0>         0.0920
     51 H20        -7.8860   -0.9958   -1.5166 H         1 <0>         0.1030
     52 H21        -7.1580    0.6206   -1.3562 H         1 <0>         0.1114
     53 H22        -5.7518    1.6645    0.1036 H         1 <0>         0.4271
     54 H23        -2.6256    0.3820    1.0951 H         1 <0>         0.1782
     55 H24        -0.3953    3.8704    0.0751 H         1 <0>         0.1736
     56 H25        -2.3884    4.8417   -0.9927 H         1 <0>         0.1716
     57 N4         -5.8917   -2.3556   -0.2724 N.4       1 <0>        -0.3784
     58 H26        -5.3427   -2.6298    0.5508 H         1 <0>         0.4376
@<TRIPOS>BOND
     1    1    2 1
     2    1   33 1
     3    1   34 1
     4    1   35 1
     5    2    7 ar
     6    2    3 ar
     7    3    4 ar
     8    3   36 1
     9    4    5 ar
    10    4   37 1
    11    5    6 ar
    12    5    9 1
    13    6    7 ar
    14    6   38 1
    15    7    8 1
    16    8   39 1
    17    8   40 1
    18    8   41 1
    19    9   10 2
    20    9   11 2
    21    9   12 1
    22   12   16 1
    23   12   13 1
    24   13   14 1
    25   13   42 1
    26   13   43 1
    27   14   44 1
    28   14   45 1
    29   14   57 1
    30   15   16 1
    31   15   46 1
    32   15   47 1
    33   15   57 1
    34   16   48 1
    35   16   49 1
    36   17   18 1
    37   17   19 1
    38   17   20 1
    39   17   57 1
    40   19   50 1
    41   19   51 1
    42   19   52 1
    43   20   21 2
    44   20   22 am
    45   22   23 1
    46   22   53 1
    47   23   28 ar
    48   23   24 ar
    49   24   25 ar
    50   24   54 1
    51   25   26 ar
    52   25   30 1
    53   26   27 ar
    54   26   55 1
    55   27   28 ar
    56   27   56 1
    57   28   29 1
    58   30   31 2
    59   30   32 1
    60   57   58 1
