@<TRIPOS>MOLECULE
ZINC35324273
   47    50     0     0     0
SMALL
USER_CHARGES

@<TRIPOS>ATOM
      1 C1         -0.0173    1.4248    0.0099 C.3       1 <0>         0.0252
      2 O1          0.0021   -0.0041    0.0020 O.3       1 <0>        -0.3144
      3 C2          0.6257   -0.6182    1.0413 C.ar      1 <0>         0.1534
      4 C3          1.2018    0.1434    2.0504 C.ar      1 <0>        -0.2169
      5 C4          1.8365   -0.4722    3.1077 C.ar      1 <0>        -0.0421
      6 C5          1.9011   -1.8661    3.1662 C.ar      1 <0>        -0.0818
      7 C6          1.3189   -2.6327    2.1473 C.ar      1 <0>         0.1764
      8 C7          0.6798   -2.0035    1.0935 C.ar      1 <0>        -0.1831
      9 O2          1.3778   -3.9889    2.1966 O.3       1 <0>        -0.4760
     10 C8          2.5795   -2.5287    4.2949 C.2       1 <0>         0.0818
     11 N1          2.7017   -3.8022    4.4447 N.2       1 <0>        -0.1927
     12 N2          3.3876   -4.1766    5.5982 N.pl3     1 <0>        -0.6477
     13 C9          3.7841   -2.9636    6.3309 C.3       1 <0>         0.1723
     14 H1          3.3227   -2.9438    7.3183 H         1 <0>         0.0947
     15 C10         3.2446   -1.8178    5.4519 C.3       1 <0>        -0.1106
     16 C11         5.2843   -2.8803    6.4465 C.ar      1 <0>        -0.0969
     17 C12         6.0848   -3.5393    5.5312 C.ar      1 <0>        -0.0763
     18 C13         7.4647   -3.4661    5.6330 C.ar      1 <0>         0.0453
     19 C14         8.0474   -2.7272    6.6585 C.ar      1 <0>         0.0277
     20 C15         7.2434   -2.0664    7.5772 C.ar      1 <0>         0.0989
     21 C16         5.8592   -2.1390    7.4662 C.ar      1 <0>         0.0981
     22 O3          5.0695   -1.4869    8.3621 O.3       1 <0>        -0.3199
     23 C17         4.6924   -2.2058    9.5382 C.3       1 <0>         0.0328
     24 O4          7.8093   -1.3432    8.5816 O.3       1 <0>        -0.3224
     25 C18         8.0786    0.0350    8.3166 C.3       1 <0>         0.0367
     26 O5          9.4057   -2.8119    6.5408 O.3       1 <0>        -0.2972
     27 C19         9.6471   -3.9403    5.6796 C.3       1 <0>         0.2107
     28 O6          8.4577   -4.0142    4.8716 O.3       1 <0>        -0.3020
     29 H2          1.0053    1.8021    0.0021 H         1 <0>         0.0584
     30 H3         -0.5445    1.7859   -0.8732 H         1 <0>         0.1025
     31 H4         -0.5275    1.7763    0.9067 H         1 <0>         0.0585
     32 H5          1.1523    1.2214    2.0061 H         1 <0>         0.1353
     33 H6          2.2839    0.1229    3.8901 H         1 <0>         0.1345
     34 H7          0.2263   -2.5912    0.3090 H         1 <0>         0.1406
     35 H8          0.6335   -4.3984    2.6586 H         1 <0>         0.3938
     36 H9          3.5733   -5.0880    5.8735 H         1 <0>         0.4358
     37 H10         4.0612   -1.1895    5.0960 H         1 <0>         0.0948
     38 H11         2.5170   -1.2240    6.0050 H         1 <0>         0.0995
     39 H12         5.6331   -4.1128    4.7353 H         1 <0>         0.1466
     40 H13         4.1373   -3.1001    9.2550 H         1 <0>         0.0472
     41 H14         5.5868   -2.4930   10.0909 H         1 <0>         0.0541
     42 H15         4.0653   -1.5724   10.1657 H         1 <0>         0.0998
     43 H16         7.1472    0.5473    8.0756 H         1 <0>         0.0537
     44 H17         8.5279    0.4933    9.1976 H         1 <0>         0.0983
     45 H18         8.7660    0.1155    7.4746 H         1 <0>         0.0470
     46 H19        10.5237   -3.7655    5.0558 H         1 <0>         0.1367
     47 H20         9.7688   -4.8508    6.2664 H         1 <0>         0.0889
@<TRIPOS>BOND
     1    1    2 1
     2    1   29 1
     3    1   30 1
     4    1   31 1
     5    2    3 1
     6    3    8 ar
     7    3    4 ar
     8    4    5 ar
     9    4   32 1
    10    5    6 ar
    11    5   33 1
    12    6    7 ar
    13    6   10 1
    14    7    8 ar
    15    7    9 1
    16    8   34 1
    17    9   35 1
    18   10   15 1
    19   10   11 2
    20   11   12 1
    21   12   13 1
    22   12   36 1
    23   13   14 1
    24   13   15 1
    25   13   16 1
    26   15   37 1
    27   15   38 1
    28   16   21 ar
    29   16   17 ar
    30   17   18 ar
    31   17   39 1
    32   18   28 1
    33   18   19 ar
    34   19   20 ar
    35   19   26 1
    36   20   21 ar
    37   20   24 1
    38   21   22 1
    39   22   23 1
    40   23   40 1
    41   23   41 1
    42   23   42 1
    43   24   25 1
    44   25   43 1
    45   25   44 1
    46   25   45 1
    47   26   27 1
    48   27   28 1
    49   27   46 1
    50   27   47 1
