@<TRIPOS>MOLECULE
ZINC22608610
   51    54     0     0     0
SMALL
USER_CHARGES
methyl 2-[[(6R,9R)-9-(4-methoxyphenyl)-6-methyl-8-oxo-5,6,7,9-tetrahydro-4H-[1,2,4]triazolo[5,1-b]quinazolin-2-yl]sulfanyl]acetate
@<TRIPOS>ATOM
      1 C1          7.3832   -1.4684   -2.0120 C.3       1 <0>        -0.1508
      2 C2          5.8850   -1.4959   -1.7028 C.3       1 <0>        -0.0826
      3 H1          5.3277   -1.3300   -2.6366 H         1 <0>         0.0856
      4 C3          5.5480   -0.4019   -0.6877 C.3       1 <0>        -0.0956
      5 C4          4.0766   -0.4572   -0.3509 C.2       1 <0>         0.2531
      6 C5          3.4054   -1.6286   -0.3657 C.2       1 <0>        -0.3134
      7 C6          1.9362   -1.7181   -0.0161 C.3       1 <0>         0.2799
      8 H2          1.4003   -2.3108   -0.7721 H         1 <0>         0.1117
      9 N1          1.3426   -0.3870   -0.0110 N.pl3     1 <0>        -0.3792
     10 C7          2.0725    0.7554   -0.0152 C.2       1 <0>         0.5053
     11 N2          1.2461    1.7655   -0.0004 N.2       1 <0>        -0.5485
     12 C8         -0.0158    1.3116    0.0093 C.2       1 <0>         0.1983
     13 N3          0.0021   -0.0041    0.0020 N.2       1 <0>        -0.2575
     14 S1         -1.4640    2.3151    0.0219 S.3       1 <0>         0.1059
     15 C9         -0.8222    4.0118    0.0279 C.3       1 <0>        -0.1313
     16 C10        -1.9733    4.9843    0.0389 C.2       1 <0>         0.4832
     17 O1         -3.1101    4.5748    0.0423 O.2       1 <0>        -0.4882
     18 O2         -1.7358    6.3054    0.0449 O.3       1 <0>        -0.3510
     19 C11        -2.8925    7.1831    0.0554 C.3       1 <0>         0.0319
     20 N4          3.4572    0.7286   -0.0362 N.pl3     1 <0>        -0.6243
     21 C12         1.7838   -2.3389    1.3486 C.ar      1 <0>        -0.1339
     22 C13         2.3501   -1.7277    2.4520 C.ar      1 <0>        -0.0559
     23 C14         2.2070   -2.2918    3.7049 C.ar      1 <0>        -0.2107
     24 C15         1.5043   -3.4787    3.8538 C.ar      1 <0>         0.1390
     25 C16         0.9418   -4.0929    2.7443 C.ar      1 <0>        -0.1507
     26 C17         1.0826   -3.5216    1.4944 C.ar      1 <0>        -0.0382
     27 O3          1.3676   -4.0390    5.0843 O.3       1 <0>        -0.3147
     28 C18         1.9729   -3.3514    6.1811 C.3       1 <0>         0.0232
     29 C19         4.0543   -2.8274   -0.7129 C.2       1 <0>         0.4113
     30 O4          3.4257   -3.8674   -0.7037 O.2       1 <0>        -0.4631
     31 C20         5.5081   -2.8509   -1.0945 C.3       1 <0>        -0.1621
     32 H3          7.6497   -0.4945   -2.4484 H         1 <0>         0.0631
     33 H4          7.6248   -2.2689   -2.7267 H         1 <0>         0.0666
     34 H5          7.9521   -1.6221   -1.0832 H         1 <0>         0.0621
     35 H6          6.1381   -0.5567    0.2276 H         1 <0>         0.1088
     36 H7          5.7876    0.5824   -1.1163 H         1 <0>         0.0999
     37 H8         -0.2030    4.1664    0.9238 H         1 <0>         0.1372
     38 H9         -0.2119    4.1762   -0.8724 H         1 <0>         0.1377
     39 H10        -2.5577    8.2309    0.0594 H         1 <0>         0.1081
     40 H11        -3.4936    6.9868    0.9555 H         1 <0>         0.0683
     41 H12        -3.5025    6.9965   -0.8408 H         1 <0>         0.0684
     42 H13         4.0597    1.6208    0.1898 H         1 <0>         0.4690
     43 H14         2.9013   -0.8064    2.3348 H         1 <0>         0.1108
     44 H15         2.6461   -1.8119    4.5670 H         1 <0>         0.1285
     45 H16         0.3947   -5.0172    2.8575 H         1 <0>         0.1358
     46 H17         0.6449   -3.9994    0.6304 H         1 <0>         0.1341
     47 H18         1.7873   -3.9091    7.1109 H         1 <0>         0.1040
     48 H19         1.5405   -2.3435    6.2656 H         1 <0>         0.0565
     49 H20         3.0568   -3.2723    6.0111 H         1 <0>         0.0565
     50 H21         5.6853   -3.6465   -1.8332 H         1 <0>         0.1030
     51 H22         6.1234   -3.0359   -0.2017 H         1 <0>         0.1052
@<TRIPOS>BOND
     1    1    2 1
     2    1   32 1
     3    1   33 1
     4    1   34 1
     5    2    3 1
     6    2   31 1
     7    2    4 1
     8    4    5 1
     9    4   35 1
    10    4   36 1
    11    5   20 1
    12    5    6 2
    13    6    7 1
    14    6   29 1
    15    7    8 1
    16    7    9 1
    17    7   21 1
    18    9   13 1
    19    9   10 1
    20   10   11 2
    21   10   20 1
    22   11   12 1
    23   12   13 2
    24   12   14 1
    25   14   15 1
    26   15   16 1
    27   15   37 1
    28   15   38 1
    29   16   17 2
    30   16   18 1
    31   18   19 1
    32   19   39 1
    33   19   40 1
    34   19   41 1
    35   20   42 1
    36   21   26 ar
    37   21   22 ar
    38   22   23 ar
    39   22   43 1
    40   23   24 ar
    41   23   44 1
    42   24   25 ar
    43   24   27 1
    44   25   26 ar
    45   25   45 1
    46   26   46 1
    47   27   28 1
    48   28   47 1
    49   28   48 1
    50   28   49 1
    51   29   30 2
    52   29   31 1
    53   31   50 1
    54   31   51 1
