@<TRIPOS>MOLECULE
ZINC33122331
   53    56     0     0     0
SMALL
USER_CHARGES
N-[4-[(5-ethyl-[1,2,4]triazolo[1,5-a]pyrimidin-7-yl)sulfanyl]phenyl]-2,5-dimethoxy-benzenesulfonamide
@<TRIPOS>ATOM
      1 C1         -3.1922    1.7508   -5.8657 C.3       1 <0>        -0.1498
      2 C2         -2.6670    0.6897   -4.8966 C.3       1 <0>        -0.0773
      3 C3         -1.3126    1.1052   -4.3826 C.2       1 <0>         0.2461
      4 C4         -1.0894    1.1879   -3.0112 C.2       1 <0>        -0.2091
      5 C5          0.1577    1.5758   -2.5571 C.2       1 <0>         0.1674
      6 N1          1.1320    1.8549   -3.4737 N.pl3     1 <0>        -0.3290
      7 C6          0.8665    1.7544   -4.8103 C.2       1 <0>         0.4597
      8 N2         -0.3469    1.3827   -5.2340 N.2       1 <0>        -0.4643
      9 N3          1.9805    2.0801   -5.4568 N.2       1 <0>        -0.5274
     10 C7          2.9340    2.3808   -4.5835 C.2       1 <0>         0.2512
     11 N4          2.4685    2.2592   -3.3643 N.2       1 <0>        -0.3217
     12 S1          0.4862    1.7006   -0.8305 S.3       1 <0>         0.0872
     13 C8          2.2240    1.9890   -0.8697 C.ar      1 <0>        -0.1384
     14 C9          3.1041    0.9176   -0.9551 C.ar      1 <0>        -0.0419
     15 C10         4.4654    1.1440   -0.9912 C.ar      1 <0>        -0.1162
     16 C11         4.9555    2.4421   -0.9305 C.ar      1 <0>         0.1926
     17 C12         4.0758    3.5131   -0.8398 C.ar      1 <0>        -0.0983
     18 C13         2.7142    3.2873   -0.8095 C.ar      1 <0>        -0.0267
     19 N5          6.3356    2.6711   -0.9612 N.pl3     1 <0>        -1.0809
     20 S2          7.1299    3.1282    0.4181 S.o2      1 <0>         2.7015
     21 O1          8.4989    3.2779    0.0677 O.2       1 <0>        -0.9530
     22 O2          6.3710    4.1830    0.9932 O.2       1 <0>        -0.9335
     23 C14         7.0431    1.7743    1.5424 C.ar      1 <0>        -0.6743
     24 C15         8.1891    1.0785    1.8757 C.ar      1 <0>        -0.0171
     25 C16         8.1208    0.0133    2.7609 C.ar      1 <0>         0.0739
     26 C17         6.9017   -0.3538    3.3117 C.ar      1 <0>        -0.1104
     27 C18         5.7559    0.3415    2.9782 C.ar      1 <0>        -0.1864
     28 C19         5.8252    1.4107    2.0971 C.ar      1 <0>         0.1935
     29 O3          4.6980    2.0990    1.7733 O.3       1 <0>        -0.2995
     30 C20         3.4993    1.7430    2.4649 C.3       1 <0>         0.0240
     31 O4          9.2489   -0.6713    3.0893 O.3       1 <0>        -0.3126
     32 C21         9.1049   -1.7572    4.0069 C.3       1 <0>         0.0215
     33 H1         -4.1808    1.4475   -6.2409 H         1 <0>         0.0682
     34 H2         -2.4950    1.8531   -6.7104 H         1 <0>         0.0707
     35 H3         -3.2784    2.7146   -5.3426 H         1 <0>         0.0557
     36 H4         -3.3642    0.5874   -4.0519 H         1 <0>         0.0944
     37 H5         -2.5808   -0.2741   -5.4197 H         1 <0>         0.0995
     38 H6         -1.8796    0.9565   -2.3124 H         1 <0>         0.1749
     39 H7          3.9398    2.6799   -4.8388 H         1 <0>         0.2277
     40 H8          2.7232   -0.0921   -0.9978 H         1 <0>         0.1235
     41 H9          5.1496    0.3113   -1.0620 H         1 <0>         0.1271
     42 H10         4.4569    4.5225   -0.7933 H         1 <0>         0.1368
     43 H11         2.0301    4.1201   -0.7393 H         1 <0>         0.1290
     44 H12         6.8929    2.5475   -1.9015 H         1 <0>         0.4548
     45 H13         9.1383    1.3645    1.4471 H         1 <0>         0.1581
     46 H14         6.8485   -1.1834    4.0011 H         1 <0>         0.1398
     47 H15         4.8068    0.0555    3.4067 H         1 <0>         0.1410
     48 H16         2.6702    2.3725    2.1094 H         1 <0>         0.1056
     49 H17         3.6397    1.8970    3.5450 H         1 <0>         0.0624
     50 H18         3.2654    0.6855    2.2726 H         1 <0>         0.0598
     51 H19        10.0869   -2.2202    4.1841 H         1 <0>         0.1066
     52 H20         8.4176   -2.5052    3.5848 H         1 <0>         0.0567
     53 H21         8.6994   -1.3821    4.9581 H         1 <0>         0.0570
@<TRIPOS>BOND
     1    1    2 1
     2    1   33 1
     3    1   34 1
     4    1   35 1
     5    2    3 1
     6    2   36 1
     7    2   37 1
     8    3    8 2
     9    3    4 1
    10    4    5 2
    11    4   38 1
    12    5    6 1
    13    5   12 1
    14    6   11 1
    15    6    7 1
    16    7    8 1
    17    7    9 2
    18    9   10 1
    19   10   11 2
    20   10   39 1
    21   12   13 1
    22   13   18 ar
    23   13   14 ar
    24   14   15 ar
    25   14   40 1
    26   15   16 ar
    27   15   41 1
    28   16   17 ar
    29   16   19 1
    30   17   18 ar
    31   17   42 1
    32   18   43 1
    33   19   20 1
    34   19   44 1
    35   20   21 2
    36   20   22 2
    37   20   23 1
    38   23   28 ar
    39   23   24 ar
    40   24   25 ar
    41   24   45 1
    42   25   26 ar
    43   25   31 1
    44   26   27 ar
    45   26   46 1
    46   27   28 ar
    47   27   47 1
    48   28   29 1
    49   29   30 1
    50   30   48 1
    51   30   49 1
    52   30   50 1
    53   31   32 1
    54   32   51 1
    55   32   52 1
    56   32   53 1
