@<TRIPOS>MOLECULE
ZINC20504076
   53    58     0     0     0
SMALL
USER_CHARGES

@<TRIPOS>ATOM
      1 C1         -0.8828    1.4708   -1.1528 C.3       1 <0>        -0.1442
      2 C2         -0.8259   -0.0346   -1.1156 C.2       1 <0>         0.4568
      3 O1         -0.4875   -0.6509   -2.0983 O.2       1 <0>        -0.4936
      4 O2         -1.1513   -0.6911    0.0093 O.3       1 <0>        -0.2966
      5 C3         -1.1849   -2.0497   -0.0314 C.ar      1 <0>         0.0761
      6 C4         -0.0017   -2.7737   -0.0035 C.ar      1 <0>        -0.0945
      7 C5         -0.0353   -4.1534   -0.0449 C.ar      1 <0>        -0.1235
      8 C6         -1.2532   -4.8161   -0.1139 C.ar      1 <0>         0.1288
      9 C7         -2.4369   -4.0911   -0.1413 C.ar      1 <0>        -0.1259
     10 C8         -2.4025   -2.7117   -0.0951 C.ar      1 <0>        -0.0931
     11 N1         -1.2879   -6.2180   -0.1564 N.am      1 <0>        -0.5406
     12 C9         -0.1704   -7.0032   -0.1281 C.2       1 <0>         0.5489
     13 O3          0.9469   -6.6746    0.2087 O.2       1 <0>        -0.4336
     14 C10        -0.6149   -8.3622   -0.6016 C.3       1 <0>        -0.1213
     15 H1         -0.6241   -8.4600   -1.6871 H         1 <0>         0.1550
     16 C11        -0.1013   -9.6098    0.1139 C.3       1 <0>         0.0752
     17 H2          0.7569  -10.0467   -0.3967 H         1 <0>         0.1328
     18 C12         0.2016   -9.3135    1.5944 C.3       1 <0>        -0.1517
     19 C13        -0.1058  -10.6815    2.2602 C.3       1 <0>        -0.1254
     20 C14        -1.3058  -11.2049    1.4428 C.3       1 <0>        -0.0601
     21 N2         -1.2829  -10.5320    0.1187 N.3       1 <0>        -0.4489
     22 C15        -2.5095   -9.6963   -0.0372 C.3       1 <0>         0.1387
     23 C16        -2.0460   -8.3026    0.0721 C.3       1 <0>        -0.1732
     24 H3         -1.8311   -8.2363    1.1386 H         1 <0>         0.1208
     25 C17        -2.4487   -6.9478   -0.2251 C.2       1 <0>         0.5798
     26 O4         -3.5635   -6.5456   -0.4801 O.2       1 <0>        -0.4353
     27 C18        -3.1586  -10.0012   -1.3637 C.ar      1 <0>        -0.1135
     28 C19        -2.7451   -9.8615   -2.6695 C.ar      1 <0>        -0.0519
     29 C20        -3.5829  -10.2365   -3.7048 C.ar      1 <0>        -0.1321
     30 C21        -4.8352  -10.7519   -3.4239 C.ar      1 <0>        -0.0790
     31 C22        -5.2525  -10.8949   -2.1169 C.ar      1 <0>        -0.1300
     32 C23        -4.4147  -10.5191   -1.0690 C.ar      1 <0>         0.1418
     33 N3         -4.6048  -10.5673    0.3130 N.am      1 <0>        -0.6444
     34 C24        -3.5369  -10.1060    0.9889 C.2       1 <0>         0.5354
     35 O5         -3.4218  -10.0337    2.1941 O.2       1 <0>        -0.4730
     36 H4         -0.5865    1.8213   -2.1415 H         1 <0>         0.1061
     37 H5         -1.8994    1.8014   -0.9397 H         1 <0>         0.1043
     38 H6         -0.2036    1.8787   -0.4041 H         1 <0>         0.1042
     39 H7          0.9457   -2.2581    0.0502 H         1 <0>         0.1380
     40 H8          0.8857   -4.7169   -0.0239 H         1 <0>         0.1572
     41 H9         -3.3846   -4.6063   -0.1953 H         1 <0>         0.1585
     42 H10        -3.3234   -2.1477   -0.1122 H         1 <0>         0.1419
     43 H11         1.2476   -9.0393    1.7313 H         1 <0>         0.0951
     44 H12        -0.4576   -8.5354    1.9793 H         1 <0>         0.0667
     45 H13         0.7463  -11.3550    2.1680 H         1 <0>         0.0776
     46 H14        -0.3811  -10.5477    3.3063 H         1 <0>         0.0801
     47 H15        -1.2124  -12.2811    1.2969 H         1 <0>         0.0889
     48 H16        -2.2353  -10.9812    1.9663 H         1 <0>         0.1329
     49 H17        -1.7663   -9.4595   -2.8857 H         1 <0>         0.1251
     50 H18        -3.2599  -10.1267   -4.7296 H         1 <0>         0.1335
     51 H19        -5.4895  -11.0442   -4.2318 H         1 <0>         0.1349
     52 H20        -6.2314  -11.2992   -1.9054 H         1 <0>         0.1302
     53 H21        -5.4132  -10.8953    0.7369 H         1 <0>         0.4207
@<TRIPOS>BOND
     1    1    2 1
     2    1   36 1
     3    1   37 1
     4    1   38 1
     5    2    3 2
     6    2    4 1
     7    4    5 1
     8    5   10 ar
     9    5    6 ar
    10    6    7 ar
    11    6   39 1
    12    7    8 ar
    13    7   40 1
    14    8    9 ar
    15    8   11 1
    16    9   10 ar
    17    9   41 1
    18   10   42 1
    19   11   25 am
    20   11   12 am
    21   12   13 2
    22   12   14 1
    23   14   15 1
    24   14   23 1
    25   14   16 1
    26   16   17 1
    27   16   21 1
    28   16   18 1
    29   18   19 1
    30   18   43 1
    31   18   44 1
    32   19   20 1
    33   19   45 1
    34   19   46 1
    35   20   21 1
    36   20   47 1
    37   20   48 1
    38   21   22 1
    39   22   34 1
    40   22   23 1
    41   22   27 1
    42   23   24 1
    43   23   25 1
    44   25   26 2
    45   27   32 ar
    46   27   28 ar
    47   28   29 ar
    48   28   49 1
    49   29   30 ar
    50   29   50 1
    51   30   31 ar
    52   30   51 1
    53   31   32 ar
    54   31   52 1
    55   32   33 1
    56   33   34 am
    57   33   53 1
    58   34   35 2
