@<TRIPOS>MOLECULE
ZINC53110191
   39    41     0     0     0
SMALL
USER_CHARGES

@<TRIPOS>ATOM
      1 C1          0.6019    1.5577   -0.0256 C.3       1 <0>        -0.1468
      2 C2          0.3715    0.0452   -0.0175 C.3       1 <0>        -0.0866
      3 H1          0.8192   -0.3954   -0.9083 H         1 <0>         0.0666
      4 C3         -1.1313   -0.2418   -0.0067 C.3       1 <0>        -0.1169
      5 C4         -1.3616   -1.7543    0.0015 C.3       1 <0>        -0.1225
      6 C5         -0.7176   -2.3616    1.2494 C.3       1 <0>        -0.1195
      7 C6          0.7853   -2.0746    1.2387 C.3       1 <0>         0.2097
      8 C7          1.0156   -0.5621    1.2305 C.3       1 <0>        -0.1304
      9 C8          1.4293   -2.6819    2.4866 C.3       1 <0>         0.0567
     10 O1          1.3237   -4.1059    2.4322 O.3       1 <0>        -0.5688
     11 N1          1.3869   -2.6667    0.0413 N.pl3     1 <0>        -0.6598
     12 C9          2.7350   -2.5205   -0.1957 C.2       1 <0>         0.5163
     13 N2          3.5791   -1.9332    0.6134 N.2       1 <0>        -0.5422
     14 C10         4.8200   -1.9749    0.0548 C.ar      1 <0>         0.0652
     15 C11         6.0743   -1.5150    0.4582 C.ar      1 <0>        -0.0854
     16 C12         7.1692   -1.7161   -0.3534 C.ar      1 <0>        -0.1085
     17 C13         7.0315   -2.3716   -1.5673 C.ar      1 <0>        -0.1162
     18 C14         5.7966   -2.8314   -1.9781 C.ar      1 <0>        -0.0799
     19 C15         4.6852   -2.6380   -1.1740 C.ar      1 <0>        -0.0127
     20 O2          3.3776   -2.9655   -1.2898 O.3       1 <0>        -0.2371
     21 H2          1.6726    1.7621   -0.0333 H         1 <0>         0.0543
     22 H3          0.1431    1.9903   -0.9147 H         1 <0>         0.0547
     23 H4          0.1543    1.9982    0.8652 H         1 <0>         0.0558
     24 H5         -1.5789    0.1987    0.8842 H         1 <0>         0.0653
     25 H6         -1.5901    0.1908   -0.8958 H         1 <0>         0.0637
     26 H7         -2.4323   -1.9587    0.0091 H         1 <0>         0.0699
     27 H8         -0.9140   -2.1948   -0.8894 H         1 <0>         0.0603
     28 H9         -1.1652   -1.9210    2.1403 H         1 <0>         0.0848
     29 H10        -0.8817   -3.4391    1.2552 H         1 <0>         0.0802
     30 H11         2.0863   -0.3577    1.2228 H         1 <0>         0.0929
     31 H12         0.5680   -0.1216    2.1213 H         1 <0>         0.0767
     32 H13         2.4806   -2.3969    2.5281 H         1 <0>         0.0767
     33 H14         0.9175   -2.3132    3.3756 H         1 <0>         0.0539
     34 H15         1.7121   -4.5585    3.1933 H         1 <0>         0.3798
     35 H16         0.8353   -3.1618   -0.5845 H         1 <0>         0.4156
     36 H17         6.1861   -1.0032    1.4026 H         1 <0>         0.1319
     37 H18         8.1405   -1.3606   -0.0424 H         1 <0>         0.1341
     38 H19         7.8965   -2.5232   -2.1960 H         1 <0>         0.1372
     39 H20         5.6969   -3.3409   -2.9252 H         1 <0>         0.1307
@<TRIPOS>BOND
     1    1    2 1
     2    1   21 1
     3    1   22 1
     4    1   23 1
     5    2    3 1
     6    2    8 1
     7    2    4 1
     8    4    5 1
     9    4   24 1
    10    4   25 1
    11    5    6 1
    12    5   26 1
    13    5   27 1
    14    6    7 1
    15    6   28 1
    16    6   29 1
    17    7    8 1
    18    7    9 1
    19    7   11 1
    20    8   30 1
    21    8   31 1
    22    9   10 1
    23    9   32 1
    24    9   33 1
    25   10   34 1
    26   11   12 1
    27   11   35 1
    28   12   20 1
    29   12   13 2
    30   13   14 1
    31   14   19 ar
    32   14   15 ar
    33   15   16 ar
    34   15   36 1
    35   16   17 ar
    36   16   37 1
    37   17   18 ar
    38   17   38 1
    39   18   19 ar
    40   18   39 1
    41   19   20 1
