@<TRIPOS>MOLECULE
ZINC39711447
   64    67     0     0     0
SMALL
USER_CHARGES

@<TRIPOS>ATOM
      1 C1         -0.4397    2.0981   -1.0684 C.3       1 <0>        -0.1591
      2 C2         -0.2580    0.5967   -0.8366 C.3       1 <0>         0.0415
      3 O1          0.3575    0.0086   -1.9843 O.3       1 <0>        -0.2916
      4 C3          0.5915   -1.3298   -1.9414 C.ar      1 <0>         0.1041
      5 C4          0.2217   -2.0552   -0.8025 C.ar      1 <0>         0.0377
      6 C5          0.4245   -3.3929   -0.6898 C.ar      1 <0>        -0.1886
      7 C6          1.0274   -4.1164   -1.7358 C.ar      1 <0>         0.3464
      8 N1          1.2202   -5.4296   -1.6113 N.am      1 <0>        -0.5724
      9 C7          1.7800   -6.1698   -2.5533 C.2       1 <0>         0.5330
     10 O2          1.9294   -7.3650   -2.3824 O.2       1 <0>        -0.4343
     11 C8          2.2332   -5.5251   -3.8437 C.3       1 <0>        -0.1597
     12 H1          3.2992   -5.7211   -3.9591 H         1 <0>         0.2022
     13 C9          2.0162   -4.0318   -3.9905 C.2       1 <0>         0.1004
     14 C10         1.4277   -3.3802   -2.9477 C.ar      1 <0>        -0.1242
     15 C11         1.1762   -1.9402   -3.0094 C.ar      1 <0>        -0.0623
     16 C12         1.5056   -6.2199   -4.9964 C.3       1 <0>         0.0676
     17 H2          1.8219   -5.7812   -5.9428 H         1 <0>         0.1861
     18 C13        -0.0044   -6.0385   -4.8296 C.3       1 <0>         0.0989
     19 H3         -0.2440   -4.9892   -4.6577 H         1 <0>         0.1468
     20 N2         -0.5009   -6.8659   -3.7217 N.2       1 <0>        -0.3053
     21 N3         -1.3207   -7.6737   -4.1635 N.2       1 <0>         0.1494
     22 N4         -1.5147   -7.5524   -5.5390 N.pl3     1 <0>        -0.4852
     23 N5         -0.7192   -6.5424   -6.0211 N.3       1 <0>        -0.2855
     24 C14        -1.5270   -5.4818   -6.6380 C.3       1 <0>         0.0610
     25 C15        -0.6186   -4.3197   -7.0441 C.3       1 <0>        -0.1496
     26 C16        -2.2333   -6.0344   -7.8777 C.3       1 <0>        -0.1474
     27 C17        -2.5707   -4.9868   -5.6347 C.3       1 <0>        -0.1840
     28 N6          1.8306   -7.6525   -4.9880 N.4       1 <0>        -0.3803
     29 C18         1.3060   -8.2789   -6.2074 C.3       1 <0>        -0.0346
     30 C19         1.5707   -9.7855   -6.1659 C.3       1 <0>        -0.1440
     31 C20         3.0794  -10.0308   -6.0725 C.3       1 <0>        -0.1399
     32 C21         3.6283   -9.3109   -4.8374 C.3       1 <0>        -0.1419
     33 C22         3.2874   -7.8219   -4.9281 C.3       1 <0>        -0.0166
     34 H4          0.5332    2.5603   -1.2359 H         1 <0>         0.0756
     35 H5         -1.0726    2.2569   -1.9416 H         1 <0>         0.0745
     36 H6         -0.9092    2.5467   -0.1930 H         1 <0>         0.0939
     37 H7          0.3749    0.4379    0.0365 H         1 <0>         0.0767
     38 H8         -1.2308    0.1346   -0.6691 H         1 <0>         0.0753
     39 H9         -0.2428   -1.5299    0.0189 H         1 <0>         0.1801
     40 H10         0.1208   -3.9063    0.2105 H         1 <0>         0.1843
     41 H11         2.3150   -3.5058   -4.8851 H         1 <0>         0.2147
     42 H12         1.4528   -1.3708   -3.8844 H         1 <0>         0.1872
     43 H13        -2.1169   -8.0954   -6.0714 H         1 <0>         0.4733
     44 H14         0.0786   -4.6548   -7.8121 H         1 <0>         0.0817
     45 H15        -1.2257   -3.5036   -7.4358 H         1 <0>         0.0935
     46 H16        -0.0613   -3.9728   -6.1739 H         1 <0>         0.0469
     47 H17        -2.9469   -6.8017   -7.5775 H         1 <0>         0.0637
     48 H18        -2.7603   -5.2269   -8.3858 H         1 <0>         0.0873
     49 H19        -1.4957   -6.4684   -8.5528 H         1 <0>         0.0782
     50 H20        -2.0676   -4.5931   -4.7515 H         1 <0>         0.0497
     51 H21        -3.1701   -4.1998   -6.0924 H         1 <0>         0.0918
     52 H22        -3.2179   -5.8147   -5.3453 H         1 <0>         0.0703
     53 H23         0.2328   -8.1007   -6.2741 H         1 <0>         0.1620
     54 H24         1.7998   -7.8476   -7.0782 H         1 <0>         0.1334
     55 H25         1.0771  -10.2179   -5.2955 H         1 <0>         0.0847
     56 H26         1.1821  -10.2484   -7.0729 H         1 <0>         0.1182
     57 H27         3.2701  -11.1005   -5.9857 H         1 <0>         0.0998
     58 H28         3.5677   -9.6438   -6.9670 H         1 <0>         0.0857
     59 H29         3.1774   -9.7334   -3.9395 H         1 <0>         0.0912
     60 H30         4.7104   -9.4346   -4.7948 H         1 <0>         0.1190
     61 H31         3.7390   -7.4003   -5.8262 H         1 <0>         0.1386
     62 H32         3.6769   -7.3063   -4.0503 H         1 <0>         0.1215
     63 H33         0.9367   -5.8625   -0.7909 H         1 <0>         0.4511
     64 H34         1.4090   -8.0872   -4.1809 H         1 <0>         0.4276
@<TRIPOS>BOND
     1    1    2 1
     2    1   34 1
     3    1   35 1
     4    1   36 1
     5    2    3 1
     6    2   37 1
     7    2   38 1
     8    3    4 1
     9    4   15 ar
    10    4    5 ar
    11    5    6 ar
    12    5   39 1
    13    6    7 ar
    14    6   40 1
    15    7   14 ar
    16    7    8 2
    17    8    9 am
    18    8   63 1
    19    9   10 2
    20    9   11 1
    21   11   12 1
    22   11   13 1
    23   11   16 1
    24   13   14 2
    25   13   41 1
    26   14   15 ar
    27   15   42 1
    28   16   17 1
    29   16   18 1
    30   16   28 1
    31   18   19 1
    32   18   23 1
    33   18   20 1
    34   20   21 2
    35   21   22 1
    36   22   23 1
    37   22   43 1
    38   23   24 1
    39   24   25 1
    40   24   26 1
    41   24   27 1
    42   25   44 1
    43   25   45 1
    44   25   46 1
    45   26   47 1
    46   26   48 1
    47   26   49 1
    48   27   50 1
    49   27   51 1
    50   27   52 1
    51   28   33 1
    52   28   29 1
    53   28   64 1
    54   29   30 1
    55   29   53 1
    56   29   54 1
    57   30   31 1
    58   30   55 1
    59   30   56 1
    60   31   32 1
    61   31   57 1
    62   31   58 1
    63   32   33 1
    64   32   59 1
    65   32   60 1
    66   33   61 1
    67   33   62 1
