@<TRIPOS>MOLECULE
ZINC13132454
   39    41     0     0     0
SMALL
USER_CHARGES

@<TRIPOS>ATOM
      1 C1          0.7708    1.5248    2.0141 C.3       1 <0>        -0.1303
      2 C2          0.6180    0.0972    1.5562 C.ar      1 <0>        -0.0428
      3 C3          0.3906   -0.1799    0.2212 C.ar      1 <0>        -0.1109
      4 C4          0.2505   -1.4894   -0.1988 C.ar      1 <0>        -0.0792
      5 C5          0.3380   -2.5219    0.7162 C.ar      1 <0>        -0.1793
      6 C6          0.5663   -2.2448    2.0511 C.ar      1 <0>        -0.0902
      7 C7          0.7107   -0.9355    2.4704 C.ar      1 <0>        -0.1129
      8 C8          0.1842   -3.9494    0.2585 C.3       1 <0>         0.2746
      9 H1         -0.2644   -3.9389   -0.7348 H         1 <0>         0.1399
     10 C9          1.5699   -4.5625    0.1458 C.2       1 <0>        -0.1482
     11 C10         1.8224   -5.6940    0.9092 C.2       1 <0>         0.1512
     12 N1          0.8916   -6.2189    1.7050 N.2       1 <0>        -0.4577
     13 C11        -0.3263   -5.7396    1.8499 C.2       1 <0>         0.5196
     14 N2         -0.7426   -4.6243    1.1711 N.pl3     1 <0>        -0.4257
     15 N3         -2.0645   -4.4102    1.5665 N.pl3     1 <0>        -0.1300
     16 N4         -2.3675   -5.3384    2.4091 N.2       1 <0>         0.2329
     17 N5         -1.3846   -6.1301    2.5956 N.pl3     1 <0>        -0.3334
     18 C12         3.1609   -6.3346    0.8369 C.2       1 <0>         0.5162
     19 O1          3.9842   -5.9320    0.0413 O.2       1 <0>        -0.4587
     20 O2          3.4606   -7.3618    1.6539 O.3       1 <0>        -0.3240
     21 C13         4.7660   -7.9299    1.5300 C.3       1 <0>         0.0292
     22 C14         2.5488   -4.0108   -0.6915 C.2       1 <0>         0.4039
     23 O3          3.5508   -3.5172   -0.2120 O.2       1 <0>        -0.3906
     24 C15         2.3593   -4.0294   -2.1864 C.3       1 <0>        -0.1966
     25 H2          1.8204    1.8136    1.9591 H         1 <0>         0.0847
     26 H3          0.1802    2.1777    1.3714 H         1 <0>         0.0773
     27 H4          0.4223    1.6157    3.0429 H         1 <0>         0.0750
     28 H5          0.3222    0.6267   -0.4937 H         1 <0>         0.1402
     29 H6          0.0721   -1.7059   -1.2418 H         1 <0>         0.1373
     30 H7          0.6343   -3.0514    2.7661 H         1 <0>         0.1121
     31 H8          0.8927   -0.7193    3.5128 H         1 <0>         0.1347
     32 H9         -2.6468   -3.6958    1.2639 H         1 <0>         0.5183
     33 H10         4.8763   -8.7461    2.2438 H         1 <0>         0.1149
     34 H11         4.9016   -8.3114    0.5180 H         1 <0>         0.0699
     35 H12         5.5158   -7.1653    1.7335 H         1 <0>         0.0699
     36 H13         1.4557   -4.5877   -2.4312 H         1 <0>         0.0802
     37 H14         2.2657   -3.0074   -2.5536 H         1 <0>         0.1065
     38 H15         3.2195   -4.5067   -2.6558 H         1 <0>         0.1104
     39 H16        -1.3944   -6.8971    3.1892 H         1 <0>         0.5115
@<TRIPOS>BOND
     1    1    2 1
     2    1   25 1
     3    1   26 1
     4    1   27 1
     5    2    7 ar
     6    2    3 ar
     7    3    4 ar
     8    3   28 1
     9    4    5 ar
    10    4   29 1
    11    5    6 ar
    12    5    8 1
    13    6    7 ar
    14    6   30 1
    15    7   31 1
    16    8    9 1
    17    8   14 1
    18    8   10 1
    19   10   11 2
    20   10   22 1
    21   11   12 1
    22   11   18 1
    23   12   13 2
    24   13   17 1
    25   13   14 1
    26   14   15 1
    27   15   16 1
    28   15   32 1
    29   16   17 2
    30   17   39 1
    31   18   19 2
    32   18   20 1
    33   20   21 1
    34   21   33 1
    35   21   34 1
    36   21   35 1
    37   22   23 2
    38   22   24 1
    39   24   36 1
    40   24   37 1
    41   24   38 1
