@<TRIPOS>MOLECULE
ZINC16694051
   57    60     0     0     0
SMALL
USER_CHARGES

@<TRIPOS>ATOM
      1 C1          0.1085    0.2680    0.2582 C.3       1 <0>        -0.1469
      2 C2          0.2533   -1.2206    0.4428 C.2       1 <0>         0.1424
      3 C3          0.3127   -2.0666   -0.6551 C.2       1 <0>        -0.1956
      4 C4          0.4535   -3.5092   -0.4490 C.2       1 <0>         0.5795
      5 O1          0.5061   -4.2518   -1.4123 O.2       1 <0>        -0.5062
      6 N1          0.5259   -4.0239    0.7908 N.am      1 <0>        -0.6542
      7 C5          0.4718   -3.2363    1.8799 C.2       1 <0>         0.5872
      8 O2          0.5399   -3.7319    2.9893 O.2       1 <0>        -0.5372
      9 C6          0.3369   -1.7807    1.7371 C.2       1 <0>        -0.3427
     10 C7          0.2867   -0.9641    2.8626 C.2       1 <0>         0.3351
     11 N2          0.2250   -1.5124    4.0889 N.pl3     1 <0>        -0.4361
     12 N3          0.0679   -0.6940    5.2151 N.am      1 <0>        -0.3856
     13 C8          1.1226    0.0218    5.6489 C.2       1 <0>         0.5701
     14 O3          2.1858   -0.0512    5.0625 O.2       1 <0>        -0.4791
     15 C9          0.9956    0.8913    6.8269 C.ar      1 <0>        -0.1759
     16 C10         2.0587    1.6449    7.3063 C.ar      1 <0>         0.0194
     17 C11         1.8931    2.4523    8.4229 C.ar      1 <0>        -0.1564
     18 C12         0.6849    2.5286    9.0799 C.ar      1 <0>        -0.0227
     19 C13        -0.4092    1.7811    8.6227 C.ar      1 <0>        -0.1266
     20 C14        -0.2508    0.9584    7.4897 C.ar      1 <0>         0.0689
     21 C15        -1.3370    0.1920    7.0053 C.ar      1 <0>        -0.2412
     22 C16        -2.5639    0.2596    7.6589 C.ar      1 <0>         0.0687
     23 C17        -2.7205    1.0674    8.7704 C.ar      1 <0>        -0.2731
     24 C18        -1.6699    1.8270    9.2640 C.ar      1 <0>         0.3233
     25 N4         -1.8536    2.6249   10.3775 N.pl3     1 <0>        -0.6826
     26 C19        -3.1194    2.5757   11.1133 C.3       1 <0>         0.1810
     27 C20        -3.0167    3.4507   12.3642 C.3       1 <0>         0.0826
     28 O4         -4.2515    3.4026   13.0818 O.3       1 <0>        -0.5653
     29 C21        -4.2488    3.0932   10.2202 C.3       1 <0>         0.0564
     30 O5         -3.9130    4.3941    9.7334 O.3       1 <0>        -0.5631
     31 C22        -3.4149    1.1317   11.5238 C.3       1 <0>         0.0523
     32 O6         -2.3795    0.6611   12.3890 O.3       1 <0>        -0.5631
     33 C23        -1.1334   -0.6479    5.8207 C.2       1 <0>         0.5757
     34 O7         -2.0556   -1.3114    5.3848 O.2       1 <0>        -0.4825
     35 C24         0.2364   -1.5323   -1.9815 C.1       1 <0>         0.2812
     36 N5          0.1758   -1.1084   -3.0337 N.1       1 <0>        -0.4210
     37 H1          1.0964    0.7234    0.1893 H         1 <0>         0.1030
     38 H2         -0.4485    0.4682   -0.6572 H         1 <0>         0.0890
     39 H3         -0.4273    0.6892    1.1089 H         1 <0>         0.0831
     40 H4          0.6187   -4.9830    0.9023 H         1 <0>         0.4224
     41 H5          0.2974    0.1101    2.7513 H         1 <0>         0.1791
     42 H6          0.2892   -2.4746    4.1938 H         1 <0>         0.4505
     43 H7          3.0166    1.6025    6.8093 H         1 <0>         0.1489
     44 H8          2.7292    3.0325    8.7845 H         1 <0>         0.1435
     45 H9          0.5807    3.1639    9.9471 H         1 <0>         0.1340
     46 H10        -3.3985   -0.3218    7.2958 H         1 <0>         0.1463
     47 H11        -3.6801    1.1074    9.2644 H         1 <0>         0.1503
     48 H12        -1.1443    3.2175   10.6719 H         1 <0>         0.4084
     49 H13        -2.2121    3.0820   13.0004 H         1 <0>         0.0642
     50 H14        -2.8062    4.4794   12.0717 H         1 <0>         0.0615
     51 H15        -4.2585    3.9358   13.8885 H         1 <0>         0.3913
     52 H16        -4.3864    2.4146    9.3784 H         1 <0>         0.0659
     53 H17        -5.1720    3.1483   10.7971 H         1 <0>         0.0727
     54 H18        -4.5856    4.7848    9.1589 H         1 <0>         0.3875
     55 H19        -4.3710    1.0907   12.0456 H         1 <0>         0.0718
     56 H20        -3.4590    0.5029   10.6345 H         1 <0>         0.0723
     57 H21        -2.5017   -0.2498   12.6894 H         1 <0>         0.3875
@<TRIPOS>BOND
     1    1    2 1
     2    1   37 1
     3    1   38 1
     4    1   39 1
     5    2    9 1
     6    2    3 2
     7    3    4 1
     8    3   35 1
     9    4    5 2
    10    4    6 am
    11    6    7 am
    12    6   40 1
    13    7    8 2
    14    7    9 1
    15    9   10 2
    16   10   11 1
    17   10   41 1
    18   11   12 1
    19   11   42 1
    20   12   33 am
    21   12   13 am
    22   13   14 2
    23   13   15 1
    24   15   20 ar
    25   15   16 ar
    26   16   17 ar
    27   16   43 1
    28   17   18 ar
    29   17   44 1
    30   18   19 ar
    31   18   45 1
    32   19   24 ar
    33   19   20 ar
    34   20   21 ar
    35   21   22 ar
    36   21   33 1
    37   22   23 ar
    38   22   46 1
    39   23   24 ar
    40   23   47 1
    41   24   25 1
    42   25   26 1
    43   25   48 1
    44   26   27 1
    45   26   29 1
    46   26   31 1
    47   27   28 1
    48   27   49 1
    49   27   50 1
    50   28   51 1
    51   29   30 1
    52   29   52 1
    53   29   53 1
    54   30   54 1
    55   31   32 1
    56   31   55 1
    57   31   56 1
    58   32   57 1
    59   33   34 2
    60   35   36 3
