@<TRIPOS>MOLECULE
ZINC12651362
   46    49     0     0     0
SMALL
USER_CHARGES
1-acetyl-N-[3-(1-methyltetrazol-5-yl)phenyl]indoline-5-sulfonamide
@<TRIPOS>ATOM
      1 C1          5.7571   -0.2416   -8.4639 C.3       1 <0>        -0.1705
      2 C2          5.3237   -1.1844   -7.3710 C.2       1 <0>         0.5218
      3 O1          4.2713   -1.7797   -7.4657 O.2       1 <0>        -0.5124
      4 N1          6.1056   -1.3660   -6.2884 N.am      1 <0>        -0.5595
      5 C3          7.3936   -0.7048   -6.0620 C.3       1 <0>         0.0973
      6 C4          7.8859   -1.2348   -4.7053 C.3       1 <0>        -0.0870
      7 C5          6.8023   -2.1873   -4.2527 C.ar      1 <0>        -0.1584
      8 C6          5.8065   -2.2125   -5.2164 C.ar      1 <0>         0.2069
      9 C7          4.6912   -3.0280   -5.0174 C.ar      1 <0>        -0.1522
     10 C8          4.5887   -3.8003   -3.8798 C.ar      1 <0>         0.0114
     11 C9          5.5850   -3.7641   -2.9220 C.ar      1 <0>        -0.7017
     12 C10         6.6926   -2.9585   -3.1118 C.ar      1 <0>         0.0265
     13 S1          5.4472   -4.7476   -1.4665 S.o2      1 <0>         2.6951
     14 O2          6.7694   -4.9528   -0.9882 O.2       1 <0>        -0.9457
     15 O3          4.5765   -5.8245   -1.7849 O.2       1 <0>        -0.9456
     16 N2          4.6691   -3.8307   -0.3279 N.pl3     1 <0>        -1.0557
     17 C11         3.3430   -3.4413   -0.5317 C.ar      1 <0>         0.1481
     18 C12         2.4106   -4.3637   -0.9927 C.ar      1 <0>        -0.1273
     19 C13         1.0981   -3.9826   -1.1966 C.ar      1 <0>        -0.0899
     20 C14         0.7045   -2.6838   -0.9437 C.ar      1 <0>        -0.1110
     21 C15         1.6325   -1.7511   -0.4804 C.ar      1 <0>        -0.0216
     22 C16         2.9578   -2.1334   -0.2797 C.ar      1 <0>        -0.0741
     23 C17         1.2125   -0.3579   -0.2086 C.2       1 <0>         0.2890
     24 N3          2.0016    0.6895   -0.0963 N.2       1 <0>        -0.3218
     25 N4          1.3136    1.7475    0.1408 N.2       1 <0>        -0.0358
     26 N5          0.0576    1.4633    0.1971 N.2       1 <0>        -0.0788
     27 N6         -0.0580    0.0804   -0.0283 N.pl3     1 <0>        -0.3747
     28 C18        -1.2871   -0.7160   -0.0613 C.3       1 <0>         0.0771
     29 H1          6.7071   -0.5784   -8.8787 H         1 <0>         0.0952
     30 H2          5.0025   -0.2256   -9.2503 H         1 <0>         0.1012
     31 H3          5.8751    0.7611   -8.0531 H         1 <0>         0.0951
     32 H4          8.0985   -0.9701   -6.8499 H         1 <0>         0.0912
     33 H5          7.2617    0.3764   -6.0218 H         1 <0>         0.0914
     34 H6          7.9939   -0.4161   -3.9939 H         1 <0>         0.0989
     35 H7          8.8316   -1.7636   -4.8242 H         1 <0>         0.0988
     36 H8          3.9074   -3.0576   -5.7598 H         1 <0>         0.1492
     37 H9          3.7250   -4.4323   -3.7343 H         1 <0>         0.1457
     38 H10         7.4740   -2.9325   -2.3667 H         1 <0>         0.1453
     39 H11         5.1341   -3.5640    0.4805 H         1 <0>         0.4310
     40 H12         2.7131   -5.3810   -1.1926 H         1 <0>         0.1681
     41 H13         0.3780   -4.7032   -1.5552 H         1 <0>         0.1446
     42 H14        -0.3223   -2.3899   -1.1043 H         1 <0>         0.1359
     43 H15         3.6815   -1.4141    0.0743 H         1 <0>         0.1471
     44 H16        -1.6192   -0.8292   -1.0933 H         1 <0>         0.0970
     45 H17        -1.0947   -1.6991    0.3684 H         1 <0>         0.1059
     46 H18        -2.0620   -0.2124    0.5166 H         1 <0>         0.1088
@<TRIPOS>BOND
     1    1    2 1
     2    1   29 1
     3    1   30 1
     4    1   31 1
     5    2    3 2
     6    2    4 am
     7    4    8 1
     8    4    5 1
     9    5    6 1
    10    5   32 1
    11    5   33 1
    12    6    7 1
    13    6   34 1
    14    6   35 1
    15    7   12 ar
    16    7    8 ar
    17    8    9 ar
    18    9   10 ar
    19    9   36 1
    20   10   11 ar
    21   10   37 1
    22   11   12 ar
    23   11   13 1
    24   12   38 1
    25   13   14 2
    26   13   15 2
    27   13   16 1
    28   16   17 1
    29   16   39 1
    30   17   22 ar
    31   17   18 ar
    32   18   19 ar
    33   18   40 1
    34   19   20 ar
    35   19   41 1
    36   20   21 ar
    37   20   42 1
    38   21   22 ar
    39   21   23 1
    40   22   43 1
    41   23   27 1
    42   23   24 2
    43   24   25 1
    44   25   26 2
    45   26   27 1
    46   27   28 1
    47   28   44 1
    48   28   45 1
    49   28   46 1
