@<TRIPOS>MOLECULE
ZINC40704434
   58    61     0     0     0
SMALL
USER_CHARGES

@<TRIPOS>ATOM
      1 C1          1.2480    1.4410   -0.0383 C.3       1 <0>        -0.1129
      2 C2          0.6140    0.0739   -0.0179 C.ar      1 <0>        -0.0694
      3 C3          0.0249   -0.4314   -1.1628 C.ar      1 <0>        -0.1450
      4 C4         -0.5575   -1.6854   -1.1486 C.ar      1 <0>        -0.0942
      5 C5         -0.5527   -2.4377    0.0097 C.ar      1 <0>        -0.1376
      6 C6          0.0380   -1.9333    1.1612 C.ar      1 <0>         0.1738
      7 C7          0.6269   -0.6750    1.1420 C.ar      1 <0>        -0.1264
      8 N1          0.0446   -2.6918    2.3349 N.pl3     1 <0>        -0.6513
      9 C8          0.1499   -2.0611    3.5696 C.ar      1 <0>         0.3847
     10 C9          0.2866   -2.8110    4.7393 C.ar      1 <0>         0.0052
     11 C10         0.3888   -2.1276    5.9523 C.ar      1 <0>         0.4316
     12 N2          0.3523   -0.7972    5.9476 N.ar      1 <0>        -0.5671
     13 C11         0.2220   -0.1271    4.8206 C.ar      1 <0>         0.3211
     14 N3          0.1275   -0.7330    3.6543 N.ar      1 <0>        -0.5602
     15 N4          0.5260   -2.8258    7.1465 N.pl3     1 <0>        -0.5981
     16 C12         0.4785   -4.2881    7.2995 C.3       1 <0>         0.1165
     17 C13         0.6250   -4.5733    8.8122 C.3       1 <0>        -0.0670
     18 C14         1.4448   -3.3489    9.2996 C.3       1 <0>        -0.1255
     19 C15         0.7558   -2.2311    8.4783 C.3       1 <0>         0.1567
     20 H1          1.3824   -1.3321    8.4131 H         1 <0>         0.0970
     21 C16        -0.5908   -1.9479    9.1385 C.3       1 <0>        -0.1171
     22 C17        -1.4717   -3.1739    9.2940 C.3       1 <0>        -0.0503
     23 C18        -0.7518   -4.4970    9.4673 C.3       1 <0>        -0.0966
     24 C19        -2.4480   -3.2606    8.1105 C.3       1 <0>        -0.1410
     25 C20        -2.3386   -2.9549   10.5592 C.3       1 <0>        -0.1473
     26 C21         1.3410   -5.9047    9.0874 C.3       1 <0>        -0.1325
     27 N5          0.3199   -4.2142    4.6968 N.pl3     1 <0>        -0.8906
     28 C22        -1.1882   -3.8041    0.0244 C.3       1 <0>        -0.1118
     29 H2          2.2961    1.3512   -0.3240 H         1 <0>         0.0679
     30 H3          0.7278    2.0720   -0.7589 H         1 <0>         0.0650
     31 H4          1.1787    1.8884    0.9532 H         1 <0>         0.0678
     32 H5          0.0195    0.1549   -2.0697 H         1 <0>         0.1189
     33 H6         -1.0169   -2.0768   -2.0442 H         1 <0>         0.1218
     34 H7          1.0907   -0.2815    2.0344 H         1 <0>         0.1513
     35 H8         -0.0243   -3.6582    2.2882 H         1 <0>         0.4114
     36 H9          0.1957    0.9521    4.8533 H         1 <0>         0.1949
     37 H10        -0.4563   -4.6882    6.9201 H         1 <0>         0.0731
     38 H11         1.3154   -4.7387    6.7589 H         1 <0>         0.0661
     39 H12         1.3226   -3.1894   10.3709 H         1 <0>         0.0883
     40 H13         2.4982   -3.4453    9.0361 H         1 <0>         0.0751
     41 H14        -0.4163   -1.5057   10.1310 H         1 <0>         0.0682
     42 H15        -1.1297   -1.1920    8.5487 H         1 <0>         0.0690
     43 H16        -1.3841   -5.3023    9.0589 H         1 <0>         0.0620
     44 H17        -0.6453   -4.7067   10.5439 H         1 <0>         0.0661
     45 H18        -1.8852   -3.3346    7.1799 H         1 <0>         0.0541
     46 H19        -3.0795   -4.1417    8.2242 H         1 <0>         0.0500
     47 H20        -3.0717   -2.3670    8.0878 H         1 <0>         0.0517
     48 H21        -2.9462   -2.0588   10.4326 H         1 <0>         0.0543
     49 H22        -2.9890   -3.8169   10.7077 H         1 <0>         0.0532
     50 H23        -1.6906   -2.8348   11.4273 H         1 <0>         0.0546
     51 H24         2.3346   -5.8822    8.6400 H         1 <0>         0.0620
     52 H25         1.4303   -6.0535   10.1635 H         1 <0>         0.0662
     53 H26         0.7658   -6.7229    8.6540 H         1 <0>         0.0604
     54 H27         0.3279   -4.6735    3.8425 H         1 <0>         0.3861
     55 H28         0.3348   -4.7241    5.5218 H         1 <0>         0.4017
     56 H29        -0.4450   -4.5534   -0.2485 H         1 <0>         0.0669
     57 H30        -1.5691   -4.0170    1.0232 H         1 <0>         0.0577
     58 H31        -2.0101   -3.8302   -0.6911 H         1 <0>         0.0701
@<TRIPOS>BOND
     1    1    2 1
     2    1   29 1
     3    1   30 1
     4    1   31 1
     5    2    7 ar
     6    2    3 ar
     7    3    4 ar
     8    3   32 1
     9    4    5 ar
    10    4   33 1
    11    5    6 ar
    12    5   28 1
    13    6    7 ar
    14    6    8 1
    15    7   34 1
    16    8    9 1
    17    8   35 1
    18    9   14 ar
    19    9   10 ar
    20   10   11 ar
    21   10   27 1
    22   11   12 ar
    23   11   15 1
    24   12   13 ar
    25   13   14 ar
    26   13   36 1
    27   15   19 1
    28   15   16 1
    29   16   17 1
    30   16   37 1
    31   16   38 1
    32   17   23 1
    33   17   18 1
    34   17   26 1
    35   18   19 1
    36   18   39 1
    37   18   40 1
    38   19   20 1
    39   19   21 1
    40   21   22 1
    41   21   41 1
    42   21   42 1
    43   22   23 1
    44   22   24 1
    45   22   25 1
    46   23   43 1
    47   23   44 1
    48   24   45 1
    49   24   46 1
    50   24   47 1
    51   25   48 1
    52   25   49 1
    53   25   50 1
    54   26   51 1
    55   26   52 1
    56   26   53 1
    57   27   54 1
    58   27   55 1
    59   28   56 1
    60   28   57 1
    61   28   58 1
