@<TRIPOS>MOLECULE
ZINC15879937
   40    42     0     0     0
SMALL
USER_CHARGES

@<TRIPOS>ATOM
      1 C1         -0.0187    1.5258    0.0104 C.3       1 <0>        -0.1481
      2 C2          0.0021   -0.0041    0.0020 C.3       1 <0>        -0.1004
      3 H1          0.5293   -0.3651    0.8851 H         1 <0>         0.1335
      4 C3          0.7074   -0.4901   -1.2379 C.2       1 <0>         0.5302
      5 O1          0.0664   -0.7818   -2.2253 O.2       1 <0>        -0.4489
      6 N1          2.0506   -0.6005   -1.2495 N.am      1 <0>        -0.6143
      7 C4          2.7012   -1.0488   -2.3931 C.2       1 <0>         0.2662
      8 N2          2.1773   -1.4011   -3.5462 N.2       1 <0>        -0.5155
      9 C5          2.9283   -1.8140   -4.5632 C.2       1 <0>         0.0943
     10 C6          4.2627   -1.8411   -4.3134 C.2       1 <0>        -0.2172
     11 S1          4.3541   -1.2657   -2.6410 S.3       1 <0>         0.1221
     12 C7          5.3553   -2.2540   -5.2401 C.3       1 <0>        -0.0312
     13 C8          4.7225   -3.0019   -6.4247 C.3       1 <0>        -0.1144
     14 C9          3.5293   -2.1920   -6.9396 C.3       1 <0>        -0.1210
     15 C10         2.3867   -2.2336   -5.9226 C.3       1 <0>        -0.0400
     16 S2         -1.6997   -0.6320    0.0149 S.3       1 <0>         0.0807
     17 C11        -2.3349   -0.1100    1.5733 C.2       1 <0>         0.3953
     18 N3         -1.5621    0.5803    2.3867 N.2       1 <0>        -0.5787
     19 C12        -2.0069    0.9948    3.5782 C.2       1 <0>         0.4598
     20 C13        -3.3041    0.6962    3.9711 C.2       1 <0>        -0.3982
     21 C14        -4.1181   -0.0368    3.1021 C.2       1 <0>         0.5437
     22 O2         -5.2647   -0.3176    3.4141 O.2       1 <0>        -0.5458
     23 N4         -3.6170   -0.4236    1.9104 N.am      1 <0>        -0.6211
     24 N5         -1.1786    1.7166    4.4141 N.pl3     1 <0>        -0.8286
     25 H2          1.0039    1.9031    0.0027 H         1 <0>         0.0759
     26 H3         -0.5459    1.8868   -0.8726 H         1 <0>         0.0759
     27 H4         -0.5289    1.8773    0.9072 H         1 <0>         0.0958
     28 H5          2.5633   -0.3672   -0.4598 H         1 <0>         0.4286
     29 H6          5.8837   -1.3720   -5.6019 H         1 <0>         0.0841
     30 H7          6.0506   -2.9120   -4.7188 H         1 <0>         0.0823
     31 H8          5.4585   -3.1144   -7.2209 H         1 <0>         0.0778
     32 H9          4.3830   -3.9845   -6.0971 H         1 <0>         0.0702
     33 H10         3.8355   -1.1579   -7.0973 H         1 <0>         0.0678
     34 H11         3.1872   -2.6136   -7.8848 H         1 <0>         0.0766
     35 H12         1.9885   -3.2464   -5.8608 H         1 <0>         0.0837
     36 H13         1.5984   -1.5464   -6.2301 H         1 <0>         0.0848
     37 H14        -3.6777    1.0236    4.9301 H         1 <0>         0.1497
     38 H15        -0.2722    1.9240    4.1378 H         1 <0>         0.4067
     39 H16        -1.5029    2.0163    5.2777 H         1 <0>         0.4170
     40 H17        -4.1696   -0.9292    1.2940 H         1 <0>         0.4207
@<TRIPOS>BOND
     1    1    2 1
     2    1   25 1
     3    1   26 1
     4    1   27 1
     5    2    3 1
     6    2    4 1
     7    2   16 1
     8    4    5 2
     9    4    6 am
    10    6    7 1
    11    6   28 1
    12    7   11 1
    13    7    8 2
    14    8    9 1
    15    9   15 1
    16    9   10 2
    17   10   11 1
    18   10   12 1
    19   12   13 1
    20   12   29 1
    21   12   30 1
    22   13   14 1
    23   13   31 1
    24   13   32 1
    25   14   15 1
    26   14   33 1
    27   14   34 1
    28   15   35 1
    29   15   36 1
    30   16   17 1
    31   17   23 1
    32   17   18 2
    33   18   19 1
    34   19   20 2
    35   19   24 1
    36   20   21 1
    37   20   37 1
    38   21   22 2
    39   21   23 am
    40   23   40 1
    41   24   38 1
    42   24   39 1
