@<TRIPOS>MOLECULE
ZINC51587856
   49    50     0     0     0
SMALL
USER_CHARGES

@<TRIPOS>ATOM
      1 C1          2.8194   -3.0020    2.4450 C.3       1 <0>        -0.1299
      2 C2          2.1046   -2.0709    1.4636 C.3       1 <0>        -0.0843
      3 C3          0.5944   -2.1461    1.6972 C.3       1 <0>        -0.1430
      4 C4          2.5836   -0.6344    1.6825 C.3       1 <0>        -0.1435
      5 C5          2.4161   -2.4947    0.0514 C.2       1 <0>         0.5225
      6 O1          3.1388   -3.4476   -0.1503 O.2       1 <0>        -0.5164
      7 N1          1.8918   -1.8147   -0.9874 N.am      1 <0>        -0.6724
      8 C6          2.1784   -2.2102   -2.2986 C.ar      1 <0>         0.1639
      9 C7          2.3466   -1.2539   -3.2925 C.ar      1 <0>        -0.1618
     10 C8          2.6295   -1.6436   -4.5872 C.ar      1 <0>        -0.0801
     11 C9          2.7462   -2.9848   -4.8983 C.ar      1 <0>        -0.1491
     12 C10         2.5792   -3.9457   -3.9093 C.ar      1 <0>         0.1786
     13 C11         2.3006   -3.5574   -2.6066 C.ar      1 <0>        -0.1514
     14 N2          2.6971   -5.3039   -4.2253 N.am      1 <0>        -0.6778
     15 C12         3.4410   -5.6880   -5.2815 C.2       1 <0>         0.7147
     16 O2          3.8971   -4.8538   -6.0393 O.2       1 <0>        -0.5631
     17 N3          3.6792   -6.9968   -5.4977 N.am      1 <0>        -0.6282
     18 C13         2.9930   -8.0321   -4.7086 C.3       1 <0>         0.0703
     19 C14         2.3867   -9.0549   -5.6762 C.3       1 <0>         0.0482
     20 O3          3.4002   -9.5100   -6.5759 O.3       1 <0>        -0.3468
     21 C15         3.9467   -8.4847   -7.4089 C.3       1 <0>         0.0584
     22 H1          3.1465   -8.0152   -7.9810 H         1 <0>         0.0928
     23 C16         4.6287   -7.4328   -6.5339 C.3       1 <0>         0.1072
     24 C17         4.9542   -9.0875   -8.3538 C.2       1 <0>         0.5279
     25 O4          5.2494  -10.2599   -8.2582 O.2       1 <0>        -0.5133
     26 N4          5.5272   -8.3237   -9.3049 N.am      1 <0>        -0.8490
     27 H2          2.4781   -4.0254    2.2890 H         1 <0>         0.0631
     28 H3          3.8952   -2.9485    2.2786 H         1 <0>         0.0636
     29 H4          2.5940   -2.6955    3.4664 H         1 <0>         0.0655
     30 H5          0.3690   -1.8396    2.7187 H         1 <0>         0.0732
     31 H6          0.0851   -1.4827    0.9981 H         1 <0>         0.0602
     32 H7          0.2531   -3.1695    1.5413 H         1 <0>         0.0626
     33 H8          3.6595   -0.5809    1.5161 H         1 <0>         0.0632
     34 H9          2.0744    0.0289    0.9834 H         1 <0>         0.0602
     35 H10         2.3582   -0.3279    2.7040 H         1 <0>         0.0731
     36 H11         1.3157   -1.0512   -0.8261 H         1 <0>         0.4114
     37 H12         2.2556   -0.2048   -3.0525 H         1 <0>         0.1259
     38 H13         2.7594   -0.8983   -5.3580 H         1 <0>         0.1308
     39 H14         2.9671   -3.2863   -5.9115 H         1 <0>         0.1600
     40 H15         2.1750   -4.3024   -1.8349 H         1 <0>         0.1357
     41 H16         2.2433   -5.9689   -3.6842 H         1 <0>         0.4070
     42 H17         3.7081   -8.5273   -4.0517 H         1 <0>         0.0883
     43 H18         2.2019   -7.5759   -4.1135 H         1 <0>         0.0899
     44 H19         1.9937   -9.9009   -5.1125 H         1 <0>         0.1185
     45 H20         1.5807   -8.5875   -6.2420 H         1 <0>         0.0619
     46 H21         4.9203   -6.5800   -7.1469 H         1 <0>         0.1125
     47 H22         5.5114   -7.8667   -6.0639 H         1 <0>         0.0851
     48 H23         5.2911   -7.3859   -9.3814 H         1 <0>         0.4043
     49 H24         6.1756   -8.7117   -9.9131 H         1 <0>         0.4099
@<TRIPOS>BOND
     1    1    2 1
     2    1   27 1
     3    1   28 1
     4    1   29 1
     5    2    3 1
     6    2    4 1
     7    2    5 1
     8    3   30 1
     9    3   31 1
    10    3   32 1
    11    4   33 1
    12    4   34 1
    13    4   35 1
    14    5    6 2
    15    5    7 am
    16    7    8 1
    17    7   36 1
    18    8   13 ar
    19    8    9 ar
    20    9   10 ar
    21    9   37 1
    22   10   11 ar
    23   10   38 1
    24   11   12 ar
    25   11   39 1
    26   12   13 ar
    27   12   14 1
    28   13   40 1
    29   14   15 am
    30   14   41 1
    31   15   16 2
    32   15   17 am
    33   17   23 1
    34   17   18 1
    35   18   19 1
    36   18   42 1
    37   18   43 1
    38   19   20 1
    39   19   44 1
    40   19   45 1
    41   20   21 1
    42   21   22 1
    43   21   23 1
    44   21   24 1
    45   23   46 1
    46   23   47 1
    47   24   25 2
    48   24   26 am
    49   26   48 1
    50   26   49 1
