@<TRIPOS>MOLECULE
ZINC04348836
   54    57     0     0     0
SMALL
USER_CHARGES
2-(3,4-dihydroxyphenyl)-5-hydroxy-7-[3,4,5-trihydroxy-6-(hydroxymethyl)tetrahydropyran-2-yl]oxy-chroman-4-one
@<TRIPOS>ATOM
      1 C1          7.2035    2.1717   -6.4257 C.ar      1 <0>        -0.0808
      2 C2          7.6617    1.9327   -7.7083 C.ar      1 <0>        -0.1303
      3 C3          8.7958    1.1624   -7.9063 C.ar      1 <0>         0.0927
      4 C4          9.4719    0.6304   -6.8121 C.ar      1 <0>         0.0829
      5 C5          9.0110    0.8787   -5.5295 C.ar      1 <0>        -0.1118
      6 C6          7.8750    1.6438   -5.3391 C.ar      1 <0>        -0.0854
      7 C7          7.3716    1.9078   -3.9434 C.3       1 <0>         0.1456
      8 H1          7.7785    1.1603   -3.2625 H         1 <0>         0.0929
      9 C8          7.8165    3.3071   -3.4936 C.3       1 <0>        -0.1822
     10 C9          7.2551    3.5306   -2.1009 C.2       1 <0>         0.4009
     11 O1          7.9015    4.0804   -1.2331 O.2       1 <0>        -0.4275
     12 C10         5.8910    3.0484   -1.8579 C.ar      1 <0>        -0.3123
     13 C11         5.1939    3.4254   -0.6992 C.ar      1 <0>         0.2445
     14 C12         3.9115    2.9503   -0.4906 C.ar      1 <0>        -0.2560
     15 C13         3.3248    2.0996   -1.4196 C.ar      1 <0>         0.2128
     16 C14         4.0074    1.7280   -2.5707 C.ar      1 <0>        -0.2032
     17 C15         5.2884    2.1973   -2.8026 C.ar      1 <0>         0.2298
     18 O2          5.9459    1.8383   -3.9302 O.3       1 <0>        -0.2962
     19 O3          2.0700    1.6315   -1.2026 O.3       1 <0>        -0.3216
     20 C16         1.4204    2.0497   -0.0005 C.3       1 <0>         0.2113
     21 H2          1.4124    3.1386    0.0486 H         1 <0>         0.1187
     22 C17        -0.0187    1.5275    0.0104 C.3       1 <0>         0.0679
     23 H3         -0.5443    1.8896   -0.8732 H         1 <0>         0.0786
     24 C18         0.0021   -0.0041    0.0020 C.3       1 <0>         0.0809
     25 H4          0.4664   -0.3574   -0.9187 H         1 <0>         0.0866
     26 C19         0.8094   -0.4994    1.2059 C.3       1 <0>         0.0927
     27 H5          0.8760   -1.5870    1.1771 H         1 <0>         0.0733
     28 C20         2.2165    0.1011    1.1487 C.3       1 <0>         0.1033
     29 H6          2.7224   -0.2435    0.2468 H         1 <0>         0.0846
     30 O4          2.1240    1.5269    1.1281 O.3       1 <0>        -0.3459
     31 C21         3.0103   -0.3412    2.3796 C.3       1 <0>         0.0890
     32 O5          4.3576    0.1222    2.2693 O.3       1 <0>        -0.5653
     33 O6          0.1638   -0.0923    2.4139 O.3       1 <0>        -0.5322
     34 O7         -1.3352   -0.5008    0.0862 O.3       1 <0>        -0.5511
     35 O8         -0.6854    1.9896    1.1869 O.3       1 <0>        -0.5130
     36 O9          5.7713    4.2534    0.2064 O.3       1 <0>        -0.4742
     37 O10        10.5857   -0.1265   -7.0013 O.3       1 <0>        -0.4850
     38 O11         9.2475    0.9260   -9.1671 O.3       1 <0>        -0.4871
     39 H7          6.3191    2.7724   -6.2726 H         1 <0>         0.1372
     40 H8          7.1351    2.3464   -8.5557 H         1 <0>         0.1388
     41 H9          9.5366    0.4713   -4.6785 H         1 <0>         0.1383
     42 H10         8.8154    3.3528   -3.4860 H         1 <0>         0.1016
     43 H11         7.4233    4.0593   -4.1775 H         1 <0>         0.1152
     44 H12         3.3674    3.2376    0.3970 H         1 <0>         0.1505
     45 H13         3.5371    1.0705   -3.2869 H         1 <0>         0.1490
     46 H14         2.5540    0.0783    3.2763 H         1 <0>         0.0683
     47 H15         3.0045   -1.4293    2.4440 H         1 <0>         0.0621
     48 H16         4.9201   -0.1224    3.0169 H         1 <0>         0.3833
     49 H17        -0.7353   -0.4339    2.5139 H         1 <0>         0.3850
     50 H18        -1.9057   -0.2198   -0.6423 H         1 <0>         0.3860
     51 H19        -0.7355    2.9527    1.2580 H         1 <0>         0.3774
     52 H20         5.6067    5.1920    0.0421 H         1 <0>         0.3989
     53 H21        11.4089    0.3809   -7.0124 H         1 <0>         0.3897
     54 H22         9.8791    1.5841   -9.4885 H         1 <0>         0.3908
@<TRIPOS>BOND
     1    1    6 ar
     2    1    2 ar
     3    1   39 1
     4    2    3 ar
     5    2   40 1
     6    3    4 ar
     7    3   38 1
     8    4    5 ar
     9    4   37 1
    10    5    6 ar
    11    5   41 1
    12    6    7 1
    13    7    8 1
    14    7   18 1
    15    7    9 1
    16    9   10 1
    17    9   42 1
    18    9   43 1
    19   10   11 2
    20   10   12 1
    21   12   17 ar
    22   12   13 ar
    23   13   14 ar
    24   13   36 1
    25   14   15 ar
    26   14   44 1
    27   15   16 ar
    28   15   19 1
    29   16   17 ar
    30   16   45 1
    31   17   18 1
    32   19   20 1
    33   20   21 1
    34   20   30 1
    35   20   22 1
    36   22   23 1
    37   22   24 1
    38   22   35 1
    39   24   25 1
    40   24   26 1
    41   24   34 1
    42   26   27 1
    43   26   28 1
    44   26   33 1
    45   28   29 1
    46   28   30 1
    47   28   31 1
    48   31   32 1
    49   31   46 1
    50   31   47 1
    51   32   48 1
    52   33   49 1
    53   34   50 1
    54   35   51 1
    55   36   52 1
    56   37   53 1
    57   38   54 1
