@<TRIPOS>MOLECULE
ZINC49234459
   32    34     0     0     0
SMALL
USER_CHARGES

@<TRIPOS>ATOM
      1 C1         -0.0178    1.4608    0.0101 C.3       1 <0>         0.0944
      2 N1          0.0021   -0.0041    0.0020 N.pl3     1 <0>        -0.3514
      3 C2          0.0078   -0.7908   -1.0946 C.2       1 <0>         0.1996
      4 C3          0.0280   -2.0784   -0.6813 C.2       1 <0>        -0.8169
      5 C4          0.0349   -2.0800    0.7230 C.2       1 <0>         0.4209
      6 N2          0.0245   -0.8328    1.1310 N.2       1 <0>        -0.3516
      7 N3          0.0549   -3.2137    1.5440 N.pl3     1 <0>        -0.8353
      8 S1          0.0430   -3.5013   -1.7203 S.o2      1 <0>         2.6796
      9 O1         -0.9684   -4.3717   -1.2317 O.2       1 <0>        -0.9635
     10 O2          0.0575   -3.0262   -3.0595 O.2       1 <0>        -0.9693
     11 N4          1.4887   -4.2711   -1.4756 N.2       1 <0>        -0.9702
     12 C5          1.7641   -5.3716   -2.1312 C.2       1 <0>         0.5037
     13 N5          2.8905   -6.1637   -2.0745 N.pl3     1 <0>        -0.6071
     14 C6          2.9449   -7.2749   -2.8638 C.2       1 <0>         0.1211
     15 C7          1.9256   -7.5769   -3.6679 C.2       1 <0>        -0.1829
     16 S2          0.7770   -6.2515   -3.3322 S.3       1 <0>        -0.0171
     17 C8          4.1615   -8.1636   -2.8270 C.3       1 <0>        -0.1108
     18 C9          5.3775   -7.6644   -2.0441 C.3       1 <0>        -0.1751
     19 C10         4.5259   -8.8072   -1.4877 C.3       1 <0>        -0.1607
     20 H1          1.0048    1.8381    0.0023 H         1 <0>         0.0833
     21 H2         -0.5450    1.8219   -0.8730 H         1 <0>         0.0954
     22 H3         -0.5280    1.8123    0.9069 H         1 <0>         0.0962
     23 H4         -0.0023   -0.4522   -2.1201 H         1 <0>         0.1963
     24 H5          0.0654   -4.0991    1.1481 H         1 <0>         0.4132
     25 H6          0.0581   -3.1138    2.5089 H         1 <0>         0.4108
     26 H7          1.8197   -8.4114   -4.3453 H         1 <0>         0.2125
     27 H8          4.3479   -8.7431   -3.7312 H         1 <0>         0.1423
     28 H9          6.3643   -7.9154   -2.4332 H         1 <0>         0.1127
     29 H10         5.2976   -6.6933   -1.5557 H         1 <0>         0.0942
     30 H11         3.8857   -8.5879   -0.6332 H         1 <0>         0.1001
     31 H12         4.9524   -9.8101   -1.5108 H         1 <0>         0.1117
     32 H13         3.6279   -5.9360   -1.4869 H         1 <0>         0.4239
@<TRIPOS>BOND
     1    1    2 1
     2    1   20 1
     3    1   21 1
     4    1   22 1
     5    2    6 1
     6    2    3 1
     7    3    4 2
     8    3   23 1
     9    4    5 1
    10    4    8 1
    11    5    6 2
    12    5    7 1
    13    7   24 1
    14    7   25 1
    15    8    9 2
    16    8   10 2
    17    8   11 1
    18   11   12 2
    19   12   16 1
    20   12   13 1
    21   13   14 1
    22   13   32 1
    23   14   15 2
    24   14   17 1
    25   15   16 1
    26   15   26 1
    27   17   19 1
    28   17   18 1
    29   17   27 1
    30   18   19 1
    31   18   28 1
    32   18   29 1
    33   19   30 1
    34   19   31 1
