@<TRIPOS>MOLECULE
ZINC62966810
   42    43     0     0     0
SMALL
USER_CHARGES

@<TRIPOS>ATOM
      1 C1         -0.0187    1.5258    0.0104 C.3       1 <0>        -0.1537
      2 C2          0.0021   -0.0041    0.0020 C.3       1 <0>         0.0606
      3 O1         -1.3386   -0.4987    0.0122 O.3       1 <0>        -0.3475
      4 C3         -1.4970   -1.8369    0.0065 C.2       1 <0>         0.5216
      5 O2         -0.5233   -2.5640   -0.0067 O.2       1 <0>        -0.4751
      6 C4         -2.8502   -2.4183    0.0163 C.2       1 <0>        -0.2045
      7 C5         -4.0424   -1.7210    0.0254 C.2       1 <0>         0.1482
      8 N1         -5.0357   -2.6238    0.0324 N.pl3     1 <0>        -0.4371
      9 N2         -4.4720   -3.9045    0.0277 N.2       1 <0>        -0.2016
     10 H1         -5.9845   -2.4223    0.0398 H         1 <0>         0.4561
     11 C6         -3.1724   -3.7945    0.0120 C.2       1 <0>        -0.4232
     12 S1         -2.0205   -5.1277   -0.0067 S.o2      1 <0>         2.7283
     13 O3         -1.8786   -5.5228   -1.3643 O.2       1 <0>        -0.9214
     14 O4         -0.9149   -4.7203    0.7877 O.2       1 <0>        -0.8801
     15 N3         -2.7292   -6.3982    0.7844 N.pl3     1 <0>        -1.0033
     16 C7         -2.6389   -6.6671    2.2270 C.3       1 <0>         0.1154
     17 C8         -3.4746   -7.9332    2.5103 C.3       1 <0>        -0.1403
     18 C9         -4.4500   -7.9826    1.3047 C.3       1 <0>         0.0034
     19 H2         -5.3076   -7.3301    1.4689 H         1 <0>         0.1575
     20 C10        -3.5604   -7.4434    0.1598 C.3       1 <0>         0.1090
     21 N4         -4.8840   -9.3598    1.0345 N.4       1 <0>        -0.3802
     22 C11        -5.5997   -9.8861    2.2045 C.3       1 <0>        -0.0481
     23 C12        -5.7767   -9.3720   -0.1320 C.3       1 <0>        -0.0526
     24 H3          1.0039    1.9031    0.0027 H         1 <0>         0.0849
     25 H4         -0.5459    1.8868   -0.8726 H         1 <0>         0.0679
     26 H5         -0.5289    1.8773    0.9072 H         1 <0>         0.0677
     27 H6          0.5123   -0.3556   -0.8948 H         1 <0>         0.0734
     28 H7          0.5293   -0.3651    0.8851 H         1 <0>         0.0743
     29 H8         -4.1548   -0.6468    0.0269 H         1 <0>         0.2136
     30 H9         -1.5997   -6.8384    2.5078 H         1 <0>         0.1002
     31 H10        -3.0422   -5.8236    2.7873 H         1 <0>         0.0863
     32 H11        -2.8392   -8.8186    2.5288 H         1 <0>         0.1025
     33 H12        -4.0235   -7.8314    3.4465 H         1 <0>         0.1135
     34 H13        -4.1767   -7.0157   -0.6309 H         1 <0>         0.1072
     35 H14        -2.9322   -8.2409   -0.2371 H         1 <0>         0.0953
     36 H15        -5.9217  -10.9079    2.0040 H         1 <0>         0.1277
     37 H16        -4.9372   -9.8770    3.0700 H         1 <0>         0.1248
     38 H17        -6.4712   -9.2637    2.4074 H         1 <0>         0.1232
     39 H18        -5.2457   -8.9815   -1.0001 H         1 <0>         0.1253
     40 H19        -6.0987  -10.3939   -0.3324 H         1 <0>         0.1288
     41 H20        -6.6483   -8.7497    0.0710 H         1 <0>         0.1244
     42 H21        -4.0772   -9.9359    0.8467 H         1 <0>         0.4279
@<TRIPOS>BOND
     1    1    2 1
     2    1   24 1
     3    1   25 1
     4    1   26 1
     5    2    3 1
     6    2   27 1
     7    2   28 1
     8    3    4 1
     9    4    5 2
    10    4    6 1
    11    6   11 1
    12    6    7 2
    13    7   29 1
    14    7    8 1
    15    8   10 1
    16    8    9 1
    17    9   11 2
    18   11   12 1
    19   12   13 2
    20   12   14 2
    21   12   15 1
    22   15   20 1
    23   15   16 1
    24   16   17 1
    25   16   30 1
    26   16   31 1
    27   17   18 1
    28   17   32 1
    29   17   33 1
    30   18   19 1
    31   18   20 1
    32   18   21 1
    33   20   34 1
    34   20   35 1
    35   21   22 1
    36   21   23 1
    37   21   42 1
    38   22   36 1
    39   22   37 1
    40   22   38 1
    41   23   39 1
    42   23   40 1
    43   23   41 1
