@<TRIPOS>MOLECULE
ZINC48382066
   53    54     0     0     0
SMALL
USER_CHARGES

@<TRIPOS>ATOM
      1 C1         -0.9241    1.7817    0.2964 C.3       1 <0>        -0.1629
      2 C2         -0.6482    0.3277   -0.0916 C.3       1 <0>         0.1524
      3 C3          0.6580   -0.1344    0.5577 C.3       1 <0>        -0.1668
      4 N1         -1.7502   -0.5190    0.3721 N.am      1 <0>        -0.7328
      5 C4         -2.0074   -1.6887   -0.2461 C.2       1 <0>         0.7036
      6 O1         -1.3250   -2.0412   -1.1885 O.2       1 <0>        -0.5659
      7 N2         -3.0213   -2.4676    0.1804 N.am      1 <0>        -0.6883
      8 C5         -3.3505   -3.6282   -0.5187 C.ar      1 <0>         0.2071
      9 C6         -2.3479   -4.3895   -1.1113 C.ar      1 <0>        -0.1275
     10 C7         -2.6694   -5.5359   -1.8022 C.ar      1 <0>        -0.0303
     11 C8         -4.0046   -5.9351   -1.9076 C.ar      1 <0>        -0.1690
     12 C9         -5.0091   -5.1684   -1.3107 C.ar      1 <0>        -0.0626
     13 C10        -4.6802   -4.0256   -0.6171 C.ar      1 <0>        -0.1575
     14 C11        -4.3531   -7.1633   -2.6479 C.2       1 <0>         0.5740
     15 O2         -3.4782   -7.8291   -3.1670 O.2       1 <0>        -0.5229
     16 N3         -5.6412   -7.5469   -2.7486 N.am      1 <0>        -0.7283
     17 C12        -5.9871   -8.7661   -3.4835 C.3       1 <0>         0.1029
     18 C13        -7.5092   -8.9062   -3.5513 C.3       1 <0>         0.1206
     19 H1         -7.9367   -8.0112   -4.0033 H         1 <0>         0.1594
     20 C14        -8.0603   -9.0782   -2.1592 C.2       1 <0>        -0.2620
     21 C15        -8.6453   -8.1587   -1.3532 C.2       1 <0>        -0.0785
     22 C16        -9.0814   -8.5465   -0.1002 C.2       1 <0>        -0.1719
     23 C17        -8.9112   -9.8347    0.2855 C.2       1 <0>        -0.1102
     24 S1         -8.1191  -10.5475   -1.1469 S.3       1 <0>         0.0649
     25 N4         -7.8572  -10.0794   -4.3641 N.4       1 <0>        -0.3836
     26 C18        -9.3169  -10.1596   -4.5082 C.3       1 <0>        -0.0488
     27 C19        -7.2401   -9.9559   -5.6914 C.3       1 <0>        -0.0572
     28 H2         -0.1041    2.4117   -0.0485 H         1 <0>         0.0785
     29 H3         -1.8546    2.1109   -0.1661 H         1 <0>         0.0626
     30 H4         -1.0100    1.8585    1.3803 H         1 <0>         0.0627
     31 H5         -0.5622    0.2509   -1.1755 H         1 <0>         0.0916
     32 H6          0.5720   -0.0576    1.6415 H         1 <0>         0.0576
     33 H7          0.8545   -1.1703    0.2812 H         1 <0>         0.0611
     34 H8          1.4779    0.4956    0.2127 H         1 <0>         0.0704
     35 H9         -2.2947   -0.2378    1.1240 H         1 <0>         0.3987
     36 H10        -3.5219   -2.2207    0.9737 H         1 <0>         0.4112
     37 H11        -1.3163   -4.0804   -1.0295 H         1 <0>         0.1523
     38 H12        -1.8908   -6.1259   -2.2627 H         1 <0>         0.1417
     39 H13        -6.0419   -5.4739   -1.3905 H         1 <0>         0.1233
     40 H14        -5.4556   -3.4349   -0.1521 H         1 <0>         0.1346
     41 H15        -6.3392   -7.0157   -2.3344 H         1 <0>         0.4046
     42 H16        -5.5822   -8.7086   -4.4939 H         1 <0>         0.1019
     43 H17        -5.5651   -9.6310   -2.9716 H         1 <0>         0.0911
     44 H18        -8.7685   -7.1383   -1.6849 H         1 <0>         0.1443
     45 H19        -9.5505   -7.8336    0.5618 H         1 <0>         0.1527
     46 H20        -9.1869  -10.3081    1.2163 H         1 <0>         0.2013
     47 H21        -9.6839   -9.2571   -4.9970 H         1 <0>         0.1266
     48 H22        -9.5752  -11.0300   -5.1113 H         1 <0>         0.1316
     49 H23        -9.7748  -10.2512   -3.5233 H         1 <0>         0.1235
     50 H24        -6.1556  -10.0048   -5.5939 H         1 <0>         0.1301
     51 H25        -7.5846  -10.7699   -6.3294 H         1 <0>         0.1339
     52 H26        -7.5223   -9.0016   -6.1360 H         1 <0>         0.1287
     53 H27        -7.5175  -10.9148   -3.9116 H         1 <0>         0.4260
@<TRIPOS>BOND
     1    1    2 1
     2    1   28 1
     3    1   29 1
     4    1   30 1
     5    2    3 1
     6    2    4 1
     7    2   31 1
     8    3   32 1
     9    3   33 1
    10    3   34 1
    11    4    5 am
    12    4   35 1
    13    5    6 2
    14    5    7 am
    15    7    8 1
    16    7   36 1
    17    8   13 ar
    18    8    9 ar
    19    9   10 ar
    20    9   37 1
    21   10   11 ar
    22   10   38 1
    23   11   12 ar
    24   11   14 1
    25   12   13 ar
    26   12   39 1
    27   13   40 1
    28   14   15 2
    29   14   16 am
    30   16   17 1
    31   16   41 1
    32   17   18 1
    33   17   42 1
    34   17   43 1
    35   18   19 1
    36   18   20 1
    37   18   25 1
    38   20   24 1
    39   20   21 2
    40   21   22 1
    41   21   44 1
    42   22   23 2
    43   22   45 1
    44   23   24 1
    45   23   46 1
    46   25   26 1
    47   25   27 1
    48   25   53 1
    49   26   47 1
    50   26   48 1
    51   26   49 1
    52   27   50 1
    53   27   51 1
    54   27   52 1
