@<TRIPOS>MOLECULE
ZINC02347851
   61    64     0     0     0
SMALL
USER_CHARGES
N-(3-diethylaminopropyl)-trimethyl-BLAHcarboxamide
@<TRIPOS>ATOM
      1 C1        -12.9497    4.8533   -4.2114 C.3       1 <0>        -0.1877
      2 C2        -12.4169    5.9220   -5.1679 C.3       1 <0>        -0.0145
      3 C3        -13.5330    7.6868   -3.9422 C.3       1 <0>        -0.0122
      4 C4        -14.3719    8.1969   -5.1156 C.3       1 <0>        -0.1887
      5 C5        -11.2775    7.0383   -3.3463 C.3       1 <0>        -0.0072
      6 C6         -9.8893    6.7600   -3.9263 C.3       1 <0>        -0.1641
      7 C7         -8.8817    6.6049   -2.7855 C.3       1 <0>         0.1253
      8 N1         -7.5525    6.3384   -3.3408 N.am      1 <0>        -0.7185
      9 C8         -6.5001    6.1654   -2.5167 C.2       1 <0>         0.6189
     10 O1         -6.6539    6.2304   -1.3129 O.2       1 <0>        -0.4817
     11 C9         -5.1568    5.8960   -3.0779 C.2       1 <0>         0.2242
     12 N2         -4.0422    5.7080   -2.3620 N.2       1 <0>        -0.4768
     13 C10        -3.0300    5.4925   -3.1741 C.2       1 <0>         0.3444
     14 C11        -1.5927    5.2280   -2.9532 C.2       1 <0>        -0.1019
     15 C12        -0.8902    5.1323   -1.7285 C.2       1 <0>        -0.0692
     16 C13         0.4399    4.8795   -1.7816 C.2       1 <0>        -0.1933
     17 S1          0.8021    4.7583   -3.5108 S.3       1 <0>         0.2274
     18 C14        -0.8388    5.0498   -4.1266 C.2       1 <0>         0.0553
     19 N3         -1.3828    5.1181   -5.3345 N.2       1 <0>        -0.4306
     20 C15        -2.6534    5.3514   -5.5115 C.2       1 <0>         0.4030
     21 N4         -3.4960    5.5412   -4.4588 N.pl3     1 <0>        -0.3286
     22 N5         -4.8707    5.8029   -4.3629 N.2       1 <0>        -0.2828
     23 C16        -3.2019    5.4130   -6.9138 C.3       1 <0>        -0.0996
     24 C17         1.3661    4.7402   -0.6152 C.3       1 <0>         0.1406
     25 O2          0.6844    5.2281    0.5516 O.3       1 <0>        -0.3546
     26 C18        -0.6395    4.7038    0.6969 C.3       1 <0>         0.1083
     27 C19        -1.5647    5.2998   -0.3679 C.3       1 <0>        -0.0780
     28 C20        -1.1736    5.0556    2.0868 C.3       1 <0>        -0.1392
     29 C21        -0.5993    3.1825    0.5394 C.3       1 <0>        -0.1826
     30 H1        -12.2526    4.7271   -3.3830 H         1 <0>         0.0808
     31 H2        -13.9208    5.1629   -3.8251 H         1 <0>         0.0812
     32 H3        -13.0552    3.9085   -4.7446 H         1 <0>         0.1063
     33 H4        -13.1252    6.0648   -5.9840 H         1 <0>         0.1303
     34 H5        -11.4566    5.6016   -5.5721 H         1 <0>         0.1286
     35 H6        -14.0652    6.8796   -3.4388 H         1 <0>         0.1333
     36 H7        -13.3588    8.5012   -3.2390 H         1 <0>         0.1300
     37 H8        -15.3287    8.5650   -4.7453 H         1 <0>         0.1067
     38 H9        -13.8409    9.0058   -5.6173 H         1 <0>         0.0804
     39 H10       -14.5438    7.3831   -5.8202 H         1 <0>         0.0793
     40 H11       -11.5774    6.2080   -2.7071 H         1 <0>         0.1384
     41 H12       -11.2487    7.9565   -2.7596 H         1 <0>         0.1354
     42 H13        -9.5894    7.5904   -4.5655 H         1 <0>         0.0972
     43 H14        -9.9181    5.8418   -4.5130 H         1 <0>         0.0965
     44 H15        -9.1816    5.7745   -2.1462 H         1 <0>         0.0851
     45 H16        -8.8529    7.5231   -2.1988 H         1 <0>         0.0858
     46 H17        -7.4297    6.2865   -4.3016 H         1 <0>         0.4121
     47 H18        -3.1443    6.4374   -7.2818 H         1 <0>         0.1050
     48 H19        -2.6167    4.7606   -7.5619 H         1 <0>         0.1105
     49 H20        -4.2416    5.0856   -6.9119 H         1 <0>         0.0962
     50 H21         1.6299    3.6917   -0.4769 H         1 <0>         0.0877
     51 H22         2.2679    5.3276   -0.7881 H         1 <0>         0.1202
     52 H23        -1.7261    6.3585   -0.1647 H         1 <0>         0.0922
     53 H24        -2.5192    4.7735   -0.3628 H         1 <0>         0.0979
     54 H25        -2.1768    4.6459    2.2050 H         1 <0>         0.0750
     55 H26        -0.5165    4.6323    2.8464 H         1 <0>         0.0696
     56 H27        -1.2081    6.1393    2.1992 H         1 <0>         0.0672
     57 H28        -0.2241    2.9296   -0.4522 H         1 <0>         0.0607
     58 H29         0.0588    2.7561    1.2965 H         1 <0>         0.0711
     59 H30        -1.6040    2.7779    0.6618 H         1 <0>         0.0705
     60 N6        -12.2346    7.2067   -4.4601 N.4       1 <0>        -0.3953
     61 H31       -11.8612    7.9003   -5.1187 H         1 <0>         0.4286
@<TRIPOS>BOND
     1    1    2 1
     2    1   30 1
     3    1   31 1
     4    1   32 1
     5    2   33 1
     6    2   34 1
     7    2   60 1
     8    3    4 1
     9    3   35 1
    10    3   36 1
    11    3   60 1
    12    4   37 1
    13    4   38 1
    14    4   39 1
    15    5    6 1
    16    5   40 1
    17    5   41 1
    18    5   60 1
    19    6    7 1
    20    6   42 1
    21    6   43 1
    22    7    8 1
    23    7   44 1
    24    7   45 1
    25    8    9 am
    26    8   46 1
    27    9   10 2
    28    9   11 1
    29   11   22 2
    30   11   12 1
    31   12   13 2
    32   13   21 1
    33   13   14 1
    34   14   18 2
    35   14   15 1
    36   15   27 1
    37   15   16 2
    38   16   17 1
    39   16   24 1
    40   17   18 1
    41   18   19 1
    42   19   20 2
    43   20   21 1
    44   20   23 1
    45   21   22 1
    46   23   47 1
    47   23   48 1
    48   23   49 1
    49   24   25 1
    50   24   50 1
    51   24   51 1
    52   25   26 1
    53   26   27 1
    54   26   28 1
    55   26   29 1
    56   27   52 1
    57   27   53 1
    58   28   54 1
    59   28   55 1
    60   28   56 1
    61   29   57 1
    62   29   58 1
    63   29   59 1
    64   60   61 1
