@<TRIPOS>MOLECULE
ZINC43033334
   52    54     0     0     0
SMALL
USER_CHARGES

@<TRIPOS>ATOM
      1 C1         -0.0187    1.5258    0.0104 C.3       1 <0>        -0.1324
      2 C2          1.4167    2.0553   -0.0004 C.3       1 <0>        -0.1180
      3 C3          2.1328    1.5619   -1.2592 C.3       1 <0>        -0.1407
      4 C4          2.1536    0.0321   -1.2676 C.3       1 <0>         0.0253
      5 C5          0.7182   -0.4975   -1.2568 C.3       1 <0>        -0.1419
      6 C6          0.0021   -0.0041    0.0020 C.3       1 <0>        -0.1185
      7 N1          2.8412   -0.4417   -2.4763 N.4       1 <0>        -0.5071
      8 C7          2.9670   -1.9044   -2.4265 C.3       1 <0>        -0.0086
      9 C8          3.6831   -2.3978   -3.6853 C.3       1 <0>        -0.1630
     10 C9          3.8142   -3.9213   -3.6334 C.3       1 <0>         0.1432
     11 N2          4.4999   -4.3938   -4.8388 N.am      1 <0>        -0.7500
     12 C10         4.7282   -5.7108   -5.0117 C.2       1 <0>         0.7107
     13 O1          4.3650   -6.5067   -4.1674 O.2       1 <0>        -0.5781
     14 N3          5.3590   -6.1454   -6.1206 N.am      1 <0>        -0.7387
     15 C11         5.6072   -7.5769   -6.3086 C.3       1 <0>         0.2327
     16 C12         6.3212   -7.7953   -7.6176 C.2       1 <0>         0.1621
     17 N4          5.7626   -7.9981   -8.7794 N.2       1 <0>        -0.2591
     18 N5          6.6715   -8.1456   -9.6768 N.2       1 <0>        -0.2756
     19 C13         7.8524   -8.0451   -9.1263 C.2       1 <0>         0.1722
     20 N6          7.6638   -7.8119   -7.8083 N.pl3     1 <0>        -0.4879
     21 C14         8.9455   -7.6700   -7.1067 C.3       1 <0>         0.1007
     22 C15        10.0064   -8.2657   -8.0577 C.3       1 <0>        -0.1304
     23 C16         9.3331   -8.0925   -9.4356 C.3       1 <0>        -0.0448
     24 H1         -0.5289    1.8773    0.9072 H         1 <0>         0.0800
     25 H2         -0.5459    1.8868   -0.8726 H         1 <0>         0.0704
     26 H3          1.4019    3.1452    0.0056 H         1 <0>         0.0854
     27 H4          1.9439    1.6943    0.8826 H         1 <0>         0.0749
     28 H5          1.6057    1.9230   -2.1423 H         1 <0>         0.0871
     29 H6          3.1554    1.9392   -1.2670 H         1 <0>         0.0873
     30 H7          2.6808   -0.3290   -0.3846 H         1 <0>         0.1401
     31 H8          0.1910   -0.1364   -2.1398 H         1 <0>         0.0873
     32 H9          0.7330   -1.5874   -1.2628 H         1 <0>         0.0878
     33 H10         0.5293   -0.3651    0.8851 H         1 <0>         0.0750
     34 H11        -1.0205   -0.3814    0.0098 H         1 <0>         0.0854
     35 H12         2.3087   -0.1774   -3.2916 H         1 <0>         0.4266
     36 H13         3.5422   -2.1898   -1.5457 H         1 <0>         0.1370
     37 H14         1.9749   -2.3528   -2.3735 H         1 <0>         0.1382
     38 H15         3.1079   -2.1124   -4.5660 H         1 <0>         0.0955
     39 H16         4.6752   -1.9494   -3.7383 H         1 <0>         0.0946
     40 H17         4.3894   -4.2068   -2.7527 H         1 <0>         0.0783
     41 H18         2.8221   -4.3697   -3.5805 H         1 <0>         0.0792
     42 H19         4.7896   -3.7588   -5.5123 H         1 <0>         0.3992
     43 H20         5.6487   -5.5104   -6.7942 H         1 <0>         0.4002
     44 H21         6.2249   -7.9490   -5.4913 H         1 <0>         0.0889
     45 H22         4.6576   -8.1120   -6.3190 H         1 <0>         0.1079
     46 H23         9.1572   -6.6177   -6.9176 H         1 <0>         0.0964
     47 H24         8.9254   -8.2256   -6.1691 H         1 <0>         0.0992
     48 H25        10.9391   -7.7045   -8.0018 H         1 <0>         0.1095
     49 H26        10.1744   -9.3209   -7.8425 H         1 <0>         0.0936
     50 H27         9.5594   -8.9355  -10.0885 H         1 <0>         0.1099
     51 H28         9.6573   -7.1575   -9.8923 H         1 <0>         0.1052
     52 H29         3.7595   -0.0266   -2.5253 H         1 <0>         0.4281
@<TRIPOS>BOND
     1    1    6 1
     2    1    2 1
     3    1   24 1
     4    1   25 1
     5    2    3 1
     6    2   26 1
     7    2   27 1
     8    3    4 1
     9    3   28 1
    10    3   29 1
    11    4    5 1
    12    4    7 1
    13    4   30 1
    14    5    6 1
    15    5   31 1
    16    5   32 1
    17    6   33 1
    18    6   34 1
    19    7    8 1
    20    7   35 1
    21    7   52 1
    22    8    9 1
    23    8   36 1
    24    8   37 1
    25    9   10 1
    26    9   38 1
    27    9   39 1
    28   10   11 1
    29   10   40 1
    30   10   41 1
    31   11   12 am
    32   11   42 1
    33   12   13 2
    34   12   14 am
    35   14   15 1
    36   14   43 1
    37   15   16 1
    38   15   44 1
    39   15   45 1
    40   16   20 1
    41   16   17 2
    42   17   18 1
    43   18   19 2
    44   19   23 1
    45   19   20 1
    46   20   21 1
    47   21   22 1
    48   21   46 1
    49   21   47 1
    50   22   23 1
    51   22   48 1
    52   22   49 1
    53   23   50 1
    54   23   51 1
