@<TRIPOS>MOLECULE
ZINC64701586
   57    60     0     0     0
SMALL
USER_CHARGES

@<TRIPOS>ATOM
      1 C1         -3.1091   -6.9430    5.9788 C.3       1 <0>        -0.1159
      2 C2         -2.7707   -6.4711    4.5881 C.ar      1 <0>        -0.1183
      3 C3         -2.8878   -7.3361    3.5174 C.ar      1 <0>        -0.0725
      4 C4         -2.5784   -6.9050    2.2411 C.ar      1 <0>        -0.1603
      5 C5         -2.1495   -5.6044    2.0316 C.ar      1 <0>         0.1133
      6 C6         -2.0302   -4.7345    3.1003 C.ar      1 <0>        -0.1548
      7 C7         -2.3467   -5.1650    4.3819 C.ar      1 <0>         0.1691
      8 N1         -2.2327   -4.2859    5.4645 N.am      1 <0>        -0.6629
      9 C8         -1.2588   -3.3543    5.4765 C.2       1 <0>         0.5315
     10 O1         -0.5353   -3.2209    4.5122 O.2       1 <0>        -0.4939
     11 C9         -1.0688   -2.4784    6.6880 C.3       1 <0>        -0.1197
     12 S1          0.3099   -1.3358    6.3978 S.3       1 <0>        -0.1780
     13 C10         0.5041   -0.4714    7.9807 C.3       1 <0>         0.1417
     14 H1          0.4361   -1.1838    8.8029 H         1 <0>         0.1695
     15 N2         -0.5403    0.5576    8.1214 N.2       1 <0>        -0.0238
     16 N3         -0.3780    1.7368    7.8018 N.2       1 <0>        -0.1930
     17 C11         0.7648    2.2204    7.2558 C.2       1 <0>         0.4697
     18 O2          0.9192    3.4009    7.0503 O.2       1 <0>        -0.3808
     19 C12         1.8290    1.2164    6.9198 C.3       1 <0>        -0.0637
     20 H2          1.6540    0.7615    5.9448 H         1 <0>         0.1182
     21 N4          1.7850    0.2050    8.0192 N.3       1 <0>        -0.3378
     22 N5          3.0129   -0.5349    7.9117 N.3       1 <0>        -0.4510
     23 C13         4.0375    0.4108    7.3900 C.3       1 <0>         0.1103
     24 H3          4.4903    0.0120    6.4823 H         1 <0>         0.0892
     25 C14         3.2693    1.7392    7.0481 C.3       1 <0>        -0.0958
     26 C15         5.0962    0.6587    8.4334 C.ar      1 <0>        -0.0744
     27 C16         4.7407    0.7638    9.7653 C.ar      1 <0>        -0.0756
     28 C17         5.7082    0.9911   10.7262 C.ar      1 <0>        -0.1769
     29 C18         7.0377    1.1137   10.3554 C.ar      1 <0>         0.1053
     30 C19         7.3955    1.0074    9.0149 C.ar      1 <0>         0.0971
     31 C20         6.4214    0.7747    8.0573 C.ar      1 <0>        -0.1623
     32 O3          8.6990    1.1270    8.6460 O.3       1 <0>        -0.3060
     33 C21         8.9925    1.0068    7.2526 C.3       1 <0>         0.0259
     34 O4          7.9906    1.3378   11.2994 O.3       1 <0>        -0.3067
     35 C22         7.5501    1.4360   12.6553 C.3       1 <0>         0.0258
     36 F1         -1.8473   -5.1859    0.7831 F         1 <0>        -0.1346
     37 H4         -4.1655   -6.7620    6.1769 H         1 <0>         0.0756
     38 H5         -2.9017   -8.0099    6.0609 H         1 <0>         0.0761
     39 H6         -2.5048   -6.3985    6.7043 H         1 <0>         0.0648
     40 H7         -3.2212   -8.3507    3.6778 H         1 <0>         0.1397
     41 H8         -2.6707   -7.5833    1.4058 H         1 <0>         0.1391
     42 H9         -1.6952   -3.7208    2.9375 H         1 <0>         0.1525
     43 H10        -2.8545   -4.3471    6.2065 H         1 <0>         0.4174
     44 H11        -1.9801   -1.9091    6.8712 H         1 <0>         0.1316
     45 H12        -0.8486   -3.1007    7.5553 H         1 <0>         0.1285
     46 H13         2.9051   -1.3270    7.2960 H         1 <0>         0.3376
     47 H14         3.6119    2.1760    6.1100 H         1 <0>         0.1019
     48 H15         3.3541    2.4555    7.8652 H         1 <0>         0.0984
     49 H16         3.7049    0.6684   10.0556 H         1 <0>         0.1363
     50 H17         5.4278    1.0735   11.7659 H         1 <0>         0.1358
     51 H18         6.6969    0.6881    7.0166 H         1 <0>         0.1342
     52 H19        10.0651    1.1217    7.0960 H         1 <0>         0.1013
     53 H20         8.6766    0.0257    6.8980 H         1 <0>         0.0544
     54 H21         8.4598    1.7814    6.7010 H         1 <0>         0.0545
     55 H22         6.8449    2.2618   12.7493 H         1 <0>         0.0554
     56 H23         7.0619    0.5062   12.9470 H         1 <0>         0.0556
     57 H24         8.4077    1.6151   13.3038 H         1 <0>         0.1012
@<TRIPOS>BOND
     1    1    2 1
     2    1   37 1
     3    1   38 1
     4    1   39 1
     5    2    7 ar
     6    2    3 ar
     7    3    4 ar
     8    3   40 1
     9    4    5 ar
    10    4   41 1
    11    5    6 ar
    12    5   36 1
    13    6    7 ar
    14    6   42 1
    15    7    8 1
    16    8    9 am
    17    8   43 1
    18    9   10 2
    19    9   11 1
    20   11   12 1
    21   11   44 1
    22   11   45 1
    23   12   13 1
    24   13   14 1
    25   13   21 1
    26   13   15 1
    27   15   16 2
    28   16   17 1
    29   17   18 2
    30   17   19 1
    31   19   20 1
    32   19   25 1
    33   19   21 1
    34   21   22 1
    35   22   23 1
    36   22   46 1
    37   23   24 1
    38   23   25 1
    39   23   26 1
    40   25   47 1
    41   25   48 1
    42   26   31 ar
    43   26   27 ar
    44   27   28 ar
    45   27   49 1
    46   28   29 ar
    47   28   50 1
    48   29   30 ar
    49   29   34 1
    50   30   31 ar
    51   30   32 1
    52   31   51 1
    53   32   33 1
    54   33   52 1
    55   33   53 1
    56   33   54 1
    57   34   35 1
    58   35   55 1
    59   35   56 1
    60   35   57 1
