@<TRIPOS>MOLECULE
ZINC49303407
   44    45     0     0     0
SMALL
USER_CHARGES

@<TRIPOS>ATOM
      1 C1         -1.3059    1.1895   -0.1440 C.3       1 <0>        -0.1150
      2 C2         -0.6261   -0.1535   -0.0713 C.ar      1 <0>        -0.0762
      3 C3         -0.0278   -0.6862   -1.1987 C.ar      1 <0>        -0.1001
      4 C4          0.5968   -1.9182   -1.1375 C.ar      1 <0>        -0.1297
      5 C5          0.6255   -2.6219    0.0528 C.ar      1 <0>         0.0740
      6 C6          0.0248   -2.0878    1.1882 C.ar      1 <0>         0.1086
      7 C7         -0.5968   -0.8476    1.1224 C.ar      1 <0>        -0.0941
      8 N1          0.0508   -2.7957    2.3937 N.am      1 <0>        -0.6397
      9 C8          0.1495   -2.1323    3.5627 C.2       1 <0>         0.5118
     10 O1          0.1340   -0.9187    3.5750 O.2       1 <0>        -0.4965
     11 C9          0.2779   -2.8905    4.8430 C.2       1 <0>         0.5151
     12 O2          0.2934   -4.1039    4.8307 O.2       1 <0>        -0.5060
     13 N2          0.3766   -2.2271    6.0120 N.am      1 <0>        -0.6949
     14 C10         0.5025   -2.9708    7.2679 C.3       1 <0>         0.1813
     15 H1          1.0913   -3.8724    7.0988 H         1 <0>         0.1092
     16 C11        -0.8888   -3.3576    7.7733 C.3       1 <0>        -0.1618
     17 C12         1.1885   -2.1083    8.2958 C.ar      1 <0>        -0.1178
     18 C13         0.8799   -0.7637    8.3871 C.ar      1 <0>        -0.0531
     19 C14         1.5091    0.0272    9.3298 C.ar      1 <0>        -0.1316
     20 C15         2.4467   -0.5262   10.1819 C.ar      1 <0>        -0.0134
     21 C16         2.7546   -1.8705   10.0913 C.ar      1 <0>        -0.6708
     22 C17         2.1221   -2.6627    9.1511 C.ar      1 <0>        -0.0042
     23 S1          3.9500   -2.5757   11.1768 S.o2      1 <0>         2.7010
     24 O3          4.4559   -3.7336   10.5267 O.2       1 <0>        -0.9596
     25 O4          4.7908   -1.5118   11.6013 O.2       1 <0>        -0.9601
     26 N3          3.1396   -3.1036   12.5210 N.pl3     1 <0>        -1.2492
     27 F1          1.2354   -3.8259    0.1126 F         1 <0>        -0.1340
     28 H2         -0.5851    1.9744    0.0849 H         1 <0>         0.0760
     29 H3         -1.7028    1.3420   -1.1477 H         1 <0>         0.0716
     30 H4         -2.1216    1.2233    0.5783 H         1 <0>         0.0697
     31 H5         -0.0489   -0.1386   -2.1294 H         1 <0>         0.1373
     32 H6          1.0624   -2.3316   -2.0200 H         1 <0>         0.1435
     33 H7         -1.0603   -0.4281    2.0030 H         1 <0>         0.1499
     34 H8         -0.0021   -3.7642    2.3886 H         1 <0>         0.4270
     35 H9          0.3642   -1.2572    6.0219 H         1 <0>         0.4129
     36 H10        -0.7951   -3.9109    8.7077 H         1 <0>         0.0761
     37 H11        -1.4776   -2.4560    7.9424 H         1 <0>         0.0638
     38 H12        -1.3850   -3.9814    7.0298 H         1 <0>         0.0712
     39 H13         0.1475   -0.3314    7.7215 H         1 <0>         0.1329
     40 H14         1.2685    1.0777    9.4007 H         1 <0>         0.1402
     41 H15         2.9389    0.0921   10.9181 H         1 <0>         0.1471
     42 H16         2.3599   -3.7140    9.0828 H         1 <0>         0.1477
     43 H17         2.1784   -2.9892   12.5840 H         1 <0>         0.4170
     44 H18         3.6260   -3.5273   13.2454 H         1 <0>         0.4226
@<TRIPOS>BOND
     1    1    2 1
     2    1   28 1
     3    1   29 1
     4    1   30 1
     5    2    7 ar
     6    2    3 ar
     7    3    4 ar
     8    3   31 1
     9    4    5 ar
    10    4   32 1
    11    5    6 ar
    12    5   27 1
    13    6    7 ar
    14    6    8 1
    15    7   33 1
    16    8    9 am
    17    8   34 1
    18    9   10 2
    19    9   11 1
    20   11   12 2
    21   11   13 am
    22   13   14 1
    23   13   35 1
    24   14   15 1
    25   14   16 1
    26   14   17 1
    27   16   36 1
    28   16   37 1
    29   16   38 1
    30   17   22 ar
    31   17   18 ar
    32   18   19 ar
    33   18   39 1
    34   19   20 ar
    35   19   40 1
    36   20   21 ar
    37   20   41 1
    38   21   22 ar
    39   21   23 1
    40   22   42 1
    41   23   24 2
    42   23   25 2
    43   23   26 1
    44   26   43 1
    45   26   44 1
