@<TRIPOS>MOLECULE
ZINC25501844
   27    28     0     0     0
SMALL
USER_CHARGES
3,3-dimethylindane-1,2-dione oxime
@<TRIPOS>ATOM
      1 C1          3.4986    3.3090    1.2503 C.3       1 <0>        -0.1384
      2 C2          2.6773    3.6386    0.0022 C.3       1 <0>         0.0425
      3 C3          2.2852    5.0959    0.0082 C.ar      1 <0>        -0.0623
      4 C4          3.0564    6.2427    0.0081 C.ar      1 <0>        -0.1011
      5 C5          2.4534    7.4868    0.0210 C.ar      1 <0>        -0.0962
      6 C6          1.0738    7.5901    0.0350 C.ar      1 <0>        -0.1244
      7 C7          0.2945    6.4531    0.0357 C.ar      1 <0>        -0.0682
      8 C8          0.8971    5.1915    0.0222 C.ar      1 <0>        -0.1039
      9 C9          0.2976    3.8357    0.0203 C.2       1 <0>         0.1441
     10 N1         -0.9772    3.5648    0.0308 N.2       1 <0>        -0.2584
     11 O1         -1.9245    4.6172    0.0460 O.3       1 <0>        -0.4241
     12 C10         1.3923    2.8445    0.0040 C.2       1 <0>         0.1810
     13 N2          1.2746    1.5563   -0.0018 N.2       1 <0>        -0.2747
     14 O2         -0.0110    0.9628    0.0073 O.3       1 <0>        -0.4041
     15 C11         3.4869    3.3221   -1.2570 C.3       1 <0>        -0.1386
     16 H1          4.4315    3.8917    1.2397 H         1 <0>         0.0750
     17 H2          3.7371    2.2352    1.2593 H         1 <0>         0.0733
     18 H3          2.9177    3.5631    2.1491 H         1 <0>         0.0622
     19 H4          4.1337    6.1669   -0.0021 H         1 <0>         0.1303
     20 H5          3.0607    8.3799    0.0205 H         1 <0>         0.1320
     21 H6          0.6064    8.5637    0.0450 H         1 <0>         0.1304
     22 H7         -0.7822    6.5368    0.0470 H         1 <0>         0.1332
     23 H8         -3.0005    4.3886    0.0549 H         1 <0>         0.4415
     24 H9         -0.1111   -0.1326    0.0024 H         1 <0>         0.4388
     25 H10         2.8881    3.5623   -2.1479 H         1 <0>         0.0621
     26 H11         3.7465    2.2532   -1.2670 H         1 <0>         0.0732
     27 H12         4.4081    3.9232   -1.2613 H         1 <0>         0.0748
@<TRIPOS>BOND
     1    1    2 1
     2    1   16 1
     3    1   17 1
     4    1   18 1
     5    2   12 1
     6    2    3 1
     7    2   15 1
     8    3    8 ar
     9    3    4 ar
    10    4    5 ar
    11    4   19 1
    12    5    6 ar
    13    5   20 1
    14    6    7 ar
    15    6   21 1
    16    7    8 ar
    17    7   22 1
    18    8    9 1
    19    9   10 2
    20    9   12 1
    21   10   11 1
    22   11   23 1
    23   12   13 2
    24   13   14 1
    25   14   24 1
    26   15   25 1
    27   15   26 1
    28   15   27 1
