@<TRIPOS>MOLECULE
ZINC06198542
   64    68     0     0     0
SMALL
USER_CHARGES
1-(benzo[1,3]dioxol-5-ylmethyl)-3-(3-dimethylaminopropyl)-1-[(oxoBLAHyl)methyl]thiourea
@<TRIPOS>ATOM
      1 C1         -7.5414    6.0073   -0.6158 C.3       1 <0>        -0.0478
      2 C2         -7.2094    7.8246    0.9494 C.3       1 <0>        -0.0427
      3 C3         -6.1725    5.6741    1.3534 C.3       1 <0>        -0.0004
      4 C4         -5.3370    4.5741    0.6954 C.3       1 <0>        -0.1686
      5 C5         -4.8815    3.5741    1.7599 C.3       1 <0>         0.1324
      6 N1         -4.0815    2.5208    1.1299 N.pl3     1 <0>        -0.7021
      7 C6         -3.5702    1.5238    1.8789 C.2       1 <0>         0.5372
      8 S1         -3.8556    1.4881    3.5666 S.2       1 <0>        -0.5435
      9 N2         -2.8343    0.5548    1.2994 N.pl3     1 <0>        -0.5610
     10 C7         -2.5233    0.6274   -0.1304 C.3       1 <0>         0.1413
     11 C8         -1.2587    1.4225   -0.3297 C.ar      1 <0>        -0.1116
     12 C9         -0.0292    0.7963   -0.2422 C.ar      1 <0>        -0.0829
     13 C10         1.1334    1.5202   -0.4299 C.ar      1 <0>        -0.0937
     14 C11         1.0691    2.8773   -0.7012 C.ar      1 <0>         0.0477
     15 C12        -0.1693    3.5091   -0.7841 C.ar      1 <0>         0.0333
     16 C13        -1.3303    2.7774   -0.5941 C.ar      1 <0>        -0.0891
     17 O1          0.0328    4.8309   -1.0582 O.3       1 <0>        -0.3115
     18 C14         1.3847    4.9201   -1.5458 C.3       1 <0>         0.2133
     19 O2          2.0470    3.8033   -0.9235 O.3       1 <0>        -0.3028
     20 C15        -2.3453   -0.5710    2.0991 C.3       1 <0>         0.1639
     21 C16        -3.2947   -1.7334    1.9634 C.2       1 <0>        -0.2002
     22 C17        -3.0462   -2.7063    1.0500 C.2       1 <0>         0.0017
     23 C18        -3.9857   -3.8218    0.9432 C.ar      1 <0>        -0.1336
     24 C19        -3.7789   -4.8547    0.0201 C.ar      1 <0>        -0.0380
     25 C20        -4.6811   -5.8924   -0.0571 C.ar      1 <0>         0.0012
     26 C21        -5.8017   -5.9174    0.7831 C.ar      1 <0>         0.1024
     27 C22        -6.0137   -4.9017    1.6971 C.ar      1 <0>        -0.1593
     28 C23        -5.1127   -3.8483    1.7876 C.ar      1 <0>         0.2127
     29 N3         -5.3076   -2.8269    2.6953 N.am      1 <0>        -0.6334
     30 H1         -6.1102   -2.8441    3.2916 H         1 <0>         0.4223
     31 C24        -4.4342   -1.8092    2.7895 C.2       1 <0>         0.5158
     32 O3         -4.6356   -0.9270    3.6065 O.2       1 <0>        -0.4612
     33 O4         -6.5249   -7.0406    0.5060 O.3       1 <0>        -0.3010
     34 C25        -5.6301   -7.9079   -0.2146 C.3       1 <0>         0.2117
     35 O5         -4.7117   -7.0018   -0.8535 O.3       1 <0>        -0.3031
     36 H2         -8.4179    5.6458   -0.0780 H         1 <0>         0.1253
     37 H3         -7.8494    6.7401   -1.3616 H         1 <0>         0.1237
     38 H4         -7.0481    5.1707   -1.1106 H         1 <0>         0.1199
     39 H5         -6.4747    8.3091    1.5925 H         1 <0>         0.1233
     40 H6         -7.5244    8.5188    0.1704 H         1 <0>         0.1234
     41 H7         -8.0738    7.5289    1.5439 H         1 <0>         0.1248
     42 H8         -7.0453    5.2302    1.8321 H         1 <0>         0.1384
     43 H9         -5.5703    6.1892    2.1018 H         1 <0>         0.1368
     44 H10        -4.4642    5.0181    0.2167 H         1 <0>         0.0928
     45 H11        -5.9392    4.0591   -0.0530 H         1 <0>         0.0927
     46 H12        -5.7543    3.1301    2.2387 H         1 <0>         0.0945
     47 H13        -4.2792    4.0892    2.5084 H         1 <0>         0.0947
     48 H14        -3.9198    2.5410    0.1737 H         1 <0>         0.3902
     49 H15        -3.3448    1.1134   -0.6567 H         1 <0>         0.0829
     50 H16        -2.3850   -0.3797   -0.5238 H         1 <0>         0.1100
     51 H17         0.0229   -0.2616   -0.0311 H         1 <0>         0.1428
     52 H18         2.0924    1.0277   -0.3646 H         1 <0>         0.1441
     53 H19        -2.2920    3.2648   -0.6578 H         1 <0>         0.1210
     54 H20         1.4076    4.8226   -2.6312 H         1 <0>         0.0898
     55 H21         1.8429    5.8589   -1.2348 H         1 <0>         0.1367
     56 H22        -1.3572   -0.8658    1.7456 H         1 <0>         0.0967
     57 H23        -2.2828   -0.2732    3.1458 H         1 <0>         0.1389
     58 H24        -2.1736   -2.6574    0.4156 H         1 <0>         0.1451
     59 H25        -2.9158   -4.8372   -0.6289 H         1 <0>         0.1492
     60 H26        -6.8801   -4.9275    2.3413 H         1 <0>         0.1478
     61 H27        -5.1007   -8.5678    0.4726 H         1 <0>         0.0923
     62 H28        -6.1764   -8.4893   -0.9574 H         1 <0>         0.1391
     63 N4         -6.5867    6.6428    0.3166 N.4       1 <0>        -0.3978
     64 H29        -5.7576    6.9439   -0.2088 H         1 <0>         0.4309
@<TRIPOS>BOND
     1    1   36 1
     2    1   37 1
     3    1   38 1
     4    1   63 1
     5    2   39 1
     6    2   40 1
     7    2   41 1
     8    2   63 1
     9    3    4 1
    10    3   42 1
    11    3   43 1
    12    3   63 1
    13    4    5 1
    14    4   44 1
    15    4   45 1
    16    5    6 1
    17    5   46 1
    18    5   47 1
    19    6    7 1
    20    6   48 1
    21    7    8 2
    22    7    9 1
    23    9   10 1
    24    9   20 1
    25   10   11 1
    26   10   49 1
    27   10   50 1
    28   11   16 ar
    29   11   12 ar
    30   12   13 ar
    31   12   51 1
    32   13   14 ar
    33   13   52 1
    34   14   19 1
    35   14   15 ar
    36   15   16 ar
    37   15   17 1
    38   16   53 1
    39   17   18 1
    40   18   19 1
    41   18   54 1
    42   18   55 1
    43   20   21 1
    44   20   56 1
    45   20   57 1
    46   21   31 1
    47   21   22 2
    48   22   23 1
    49   22   58 1
    50   23   28 ar
    51   23   24 ar
    52   24   25 ar
    53   24   59 1
    54   25   35 1
    55   25   26 ar
    56   26   27 ar
    57   26   33 1
    58   27   28 ar
    59   27   60 1
    60   28   29 1
    61   29   30 1
    62   29   31 am
    63   31   32 2
    64   33   34 1
    65   34   35 1
    66   34   61 1
    67   34   62 1
    68   63   64 1
