@<TRIPOS>MOLECULE
ZINC63089220
   58    61     0     0     0
SMALL
USER_CHARGES

@<TRIPOS>ATOM
      1 C1         -0.6044    1.7534    0.3930 C.3       1 <0>        -0.1404
      2 C2         -0.4239    0.2346    0.3521 C.3       1 <0>        -0.1253
      3 H1          0.2148   -0.0554   -0.4822 H         1 <0>         0.1170
      4 C3         -1.7943   -0.4799    0.2697 C.3       1 <0>         0.2672
      5 H2         -2.5534    0.1783   -0.1528 H         1 <0>         0.1365
      6 O1         -2.0620   -0.7523    1.6607 O.3       1 <0>        -0.1926
      7 N1         -0.8179   -0.8087    2.3301 N.2       1 <0>        -0.2795
      8 C4          0.1390   -0.2765    1.6646 C.2       1 <0>         0.0859
      9 C5          1.5763   -0.1746    2.1059 C.3       1 <0>        -0.0903
     10 N2         -1.6933   -1.7225   -0.4997 N.pl3     1 <0>        -1.1089
     11 S1         -2.9987   -2.2744   -1.3563 S.o2      1 <0>         2.6889
     12 O2         -2.5826   -3.4671   -2.0070 O.2       1 <0>        -0.9418
     13 O3         -4.1101   -2.2372   -0.4716 O.2       1 <0>        -0.9336
     14 C6         -3.3253   -1.0961   -2.6250 C.ar      1 <0>        -0.6797
     15 C7         -4.1837   -0.0398   -2.3811 C.ar      1 <0>        -0.0014
     16 C8         -4.4417    0.8855   -3.3735 C.ar      1 <0>        -0.1364
     17 C9         -3.8378    0.7544   -4.6171 C.ar      1 <0>         0.1784
     18 C10        -2.9758   -0.3074   -4.8587 C.ar      1 <0>        -0.1525
     19 C11        -2.7182   -1.2266   -3.8606 C.ar      1 <0>         0.0087
     20 N3         -4.0975    1.6898   -5.6248 N.am      1 <0>        -0.6544
     21 C12        -4.3242    2.9793   -5.3050 C.2       1 <0>         0.5341
     22 O4         -4.2091    3.3483   -4.1554 O.2       1 <0>        -0.4803
     23 C13        -4.7207    3.9627   -6.3759 C.3       1 <0>        -0.1989
     24 S2         -4.9522    5.6024   -5.6354 S.3       1 <0>         0.1024
     25 C14        -5.4199    6.6548   -7.0369 C.3       1 <0>         0.2170
     26 H3         -5.5972    7.6747   -6.6956 H         1 <0>         0.2630
     27 N4         -6.6250    6.1240   -7.6853 N.pl3     1 <0>        -0.4550
     28 C15        -6.3139    5.8364   -8.9165 C.ar      1 <0>         0.3224
     29 C16        -7.0967    5.2807  -10.0305 C.ar      1 <0>        -0.0972
     30 C17        -6.5102    5.0801  -11.2254 C.ar      1 <0>        -0.0326
     31 C18        -5.1071    5.3980  -11.4573 C.ar      1 <0>         0.2977
     32 C19        -4.3201    5.9129  -10.4813 C.ar      1 <0>        -0.2275
     33 C20        -4.8813    6.1620   -9.1519 C.ar      1 <0>         0.3109
     34 N5         -4.3607    6.6406   -8.0531 N.pl3     1 <0>        -0.5090
     35 O5         -4.5739    5.1721  -12.6836 O.3       1 <0>        -0.2353
     36 C21        -5.4432    4.6281  -13.6788 C.3       1 <0>        -0.0113
     37 H4          0.3690    2.2323    0.4985 H         1 <0>         0.0788
     38 H5         -1.0759    2.0882   -0.5309 H         1 <0>         0.0686
     39 H6         -1.2351    2.0216    1.2406 H         1 <0>         0.0687
     40 H7          1.7238    0.7576    2.6512 H         1 <0>         0.0940
     41 H8          1.8179   -1.0169    2.7543 H         1 <0>         0.0899
     42 H9          2.2269   -0.1909    1.2315 H         1 <0>         0.0882
     43 H10        -0.8618   -2.2220   -0.5075 H         1 <0>         0.4239
     44 H11        -4.6531    0.0616   -1.4138 H         1 <0>         0.1521
     45 H12        -5.1128    1.7099   -3.1827 H         1 <0>         0.1431
     46 H13        -2.5049   -0.4123   -5.8249 H         1 <0>         0.1414
     47 H14        -2.0448   -2.0502   -4.0465 H         1 <0>         0.1547
     48 H15        -4.1143    1.4102   -6.5535 H         1 <0>         0.4186
     49 H16        -3.9367    4.0127   -7.1316 H         1 <0>         0.1361
     50 H17        -5.6523    3.6387   -6.8398 H         1 <0>         0.1332
     51 H18        -8.1388    5.0341   -9.8903 H         1 <0>         0.2153
     52 H19        -7.0962    4.6714  -12.0353 H         1 <0>         0.2099
     53 H20        -3.2834    6.1385  -10.6832 H         1 <0>         0.2086
     54 H21        -5.8223    3.6633  -13.3420 H         1 <0>         0.0940
     55 H22        -6.2782    5.3092  -13.8434 H         1 <0>         0.0946
     56 H23        -4.8922    4.4970  -14.6101 H         1 <0>         0.1468
     57 H24        -7.4947    6.0080   -7.2717 H         1 <0>         0.4973
     58 H25        -3.4439    6.9330   -7.9310 H         1 <0>         0.4959
@<TRIPOS>BOND
     1    1    2 1
     2    1   37 1
     3    1   38 1
     4    1   39 1
     5    2    3 1
     6    2    8 1
     7    2    4 1
     8    4    5 1
     9    4    6 1
    10    4   10 1
    11    6    7 1
    12    7    8 2
    13    8    9 1
    14    9   40 1
    15    9   41 1
    16    9   42 1
    17   10   11 1
    18   10   43 1
    19   11   12 2
    20   11   13 2
    21   11   14 1
    22   14   19 ar
    23   14   15 ar
    24   15   16 ar
    25   15   44 1
    26   16   17 ar
    27   16   45 1
    28   17   18 ar
    29   17   20 1
    30   18   19 ar
    31   18   46 1
    32   19   47 1
    33   20   21 am
    34   20   48 1
    35   21   22 2
    36   21   23 1
    37   23   24 1
    38   23   49 1
    39   23   50 1
    40   24   25 1
    41   25   26 1
    42   25   34 1
    43   25   27 1
    44   27   28 2
    45   27   57 1
    46   28   33 ar
    47   28   29 ar
    48   29   30 ar
    49   29   51 1
    50   30   31 ar
    51   30   52 1
    52   31   32 ar
    53   31   35 1
    54   32   33 ar
    55   32   53 1
    56   33   34 2
    57   34   58 1
    58   35   36 1
    59   36   54 1
    60   36   55 1
    61   36   56 1
