@<TRIPOS>MOLECULE
ZINC12516121
   49    51     0     0     0
SMALL
USER_CHARGES
6-amino-1,3-dimethyl-5-[(2R)-2-[[(2S)-2-methyl-3-oxo-4H-1,4-benzoxazin-6-yl]amino]propanoyl]pyrimidine-2,4-dione
@<TRIPOS>ATOM
      1 C1          1.9132    1.8739    1.4282 C.3       1 <0>        -0.1765
      2 C2          1.2476    2.0211    0.0584 C.3       1 <0>         0.0786
      3 H1          1.1038    3.0787   -0.1629 H         1 <0>         0.1485
      4 C3          2.1289    1.4029   -0.9969 C.2       1 <0>         0.4971
      5 O1          2.9522    2.0799   -1.5757 O.2       1 <0>        -0.5116
      6 N1          1.9979    0.0921   -1.2956 N.am      1 <0>        -0.6590
      7 C4          1.0146   -0.6603   -0.6375 C.ar      1 <0>         0.1422
      8 C5          1.0462   -2.0443   -0.6675 C.ar      1 <0>        -0.2022
      9 C6          0.0619   -2.7708   -0.0103 C.ar      1 <0>         0.2339
     10 C7         -0.9499   -2.1099    0.6742 C.ar      1 <0>        -0.1886
     11 C8         -0.9812   -0.7278    0.7038 C.ar      1 <0>        -0.0550
     12 C9         -0.0023    0.0000    0.0504 C.ar      1 <0>         0.0171
     13 O2         -0.0208    1.3609    0.0721 O.3       1 <0>        -0.2991
     14 N2          0.0891   -4.1695   -0.0382 N.pl3     1 <0>        -0.7358
     15 C10        -0.9493   -4.9363    0.6544 C.3       1 <0>         0.1330
     16 H2         -1.8207   -4.4497    0.5918 H         1 <0>         0.1081
     17 C11        -0.5636   -5.1043    2.1254 C.3       1 <0>        -0.1537
     18 C12        -1.0844   -6.2930    0.0124 C.2       1 <0>         0.4368
     19 O3         -0.1795   -6.7370   -0.6653 O.2       1 <0>        -0.5013
     20 C13        -2.2623   -7.0477    0.1986 C.2       1 <0>        -0.4437
     21 C14        -2.4479   -8.2765   -0.4582 C.2       1 <0>         0.5568
     22 N3         -3.6049   -8.9706   -0.2462 N.am      1 <0>        -0.5426
     23 C15        -4.5596   -8.5019    0.5725 C.2       1 <0>         0.7100
     24 O4         -5.5712   -9.1576    0.7277 O.2       1 <0>        -0.5230
     25 N4         -4.4384   -7.3351    1.2262 N.am      1 <0>        -0.5571
     26 C16        -3.3308   -6.5773    1.0896 C.2       1 <0>         0.5763
     27 O5         -3.2216   -5.5231    1.6882 O.2       1 <0>        -0.4962
     28 C17        -5.5201   -6.8828    2.1046 C.3       1 <0>         0.0774
     29 C18        -3.8077  -10.2525   -0.9258 C.3       1 <0>         0.0603
     30 N5         -1.4908   -8.7663   -1.2920 N.pl3     1 <0>        -0.7997
     31 H3          2.0561    0.8166    1.6509 H         1 <0>         0.0661
     32 H4          2.8801    2.3771    1.4182 H         1 <0>         0.0799
     33 H5          1.2776    2.3233    2.1912 H         1 <0>         0.0861
     34 H6          2.5756   -0.3227   -1.9552 H         1 <0>         0.4146
     35 H7          1.8334   -2.5570   -1.2003 H         1 <0>         0.1303
     36 H8         -1.7144   -2.6769    1.1843 H         1 <0>         0.1373
     37 H9         -1.7695   -0.2166    1.2364 H         1 <0>         0.1389
     38 H10         0.7956   -4.6314   -0.5162 H         1 <0>         0.4055
     39 H11         0.3862   -5.6348    2.1937 H         1 <0>         0.0541
     40 H12        -0.4659   -4.1230    2.5898 H         1 <0>         0.0700
     41 H13        -1.3362   -5.6749    2.6408 H         1 <0>         0.0776
     42 H14        -6.3255   -7.6172    2.0969 H         1 <0>         0.1015
     43 H15        -5.1405   -6.7705    3.1201 H         1 <0>         0.0835
     44 H16        -5.8991   -5.9242    1.7502 H         1 <0>         0.0838
     45 H17        -3.4200  -11.0590   -0.3034 H         1 <0>         0.0868
     46 H18        -4.8726  -10.4073   -1.0992 H         1 <0>         0.1108
     47 H19        -3.2814  -10.2450   -1.8802 H         1 <0>         0.0916
     48 H20        -1.4327   -9.7205   -1.4562 H         1 <0>         0.4113
     49 H21        -0.8665   -8.1612   -1.7222 H         1 <0>         0.4393
@<TRIPOS>BOND
     1    1    2 1
     2    1   31 1
     3    1   32 1
     4    1   33 1
     5    2    3 1
     6    2   13 1
     7    2    4 1
     8    4    5 2
     9    4    6 am
    10    6    7 1
    11    6   34 1
    12    7   12 ar
    13    7    8 ar
    14    8    9 ar
    15    8   35 1
    16    9   10 ar
    17    9   14 1
    18   10   11 ar
    19   10   36 1
    20   11   12 ar
    21   11   37 1
    22   12   13 1
    23   14   15 1
    24   14   38 1
    25   15   16 1
    26   15   17 1
    27   15   18 1
    28   17   39 1
    29   17   40 1
    30   17   41 1
    31   18   19 2
    32   18   20 1
    33   20   26 1
    34   20   21 2
    35   21   22 1
    36   21   30 1
    37   22   23 am
    38   22   29 1
    39   23   24 2
    40   23   25 am
    41   25   26 am
    42   25   28 1
    43   26   27 2
    44   28   42 1
    45   28   43 1
    46   28   44 1
    47   29   45 1
    48   29   46 1
    49   29   47 1
    50   30   48 1
    51   30   49 1
