@<TRIPOS>MOLECULE
ZINC39746801
   35    36     0     0     0
SMALL
USER_CHARGES

@<TRIPOS>ATOM
      1 C1         -0.0184    1.5028    0.0103 C.3       1 <0>        -0.1222
      2 C2          0.0021   -0.0041    0.0020 C.2       1 <0>        -0.1053
      3 C3          0.0051   -0.6370   -1.1601 C.2       1 <0>        -0.1176
      4 C4          0.0170   -2.1132   -1.1898 C.2       1 <0>         0.1187
      5 N1         -0.3314   -2.8105   -0.0262 N.am      1 <0>        -0.6585
      6 C5         -0.3597   -2.1764    1.1563 C.2       1 <0>         0.5262
      7 O1         -0.7053   -2.7956    2.1404 O.2       1 <0>        -0.5295
      8 C6          0.0244   -0.7351    1.3102 C.3       1 <0>        -0.0816
      9 H1         -0.6746   -0.2557    1.9956 H         1 <0>         0.1284
     10 C7          1.4329   -0.6516    1.9020 C.3       1 <0>         0.1419
     11 N2          1.4392   -1.2588    3.2353 N.am      1 <0>        -0.7267
     12 C8          2.5799   -1.2995    3.9518 C.2       1 <0>         0.5791
     13 O2          3.6051   -0.8317    3.4912 O.2       1 <0>        -0.5195
     14 C9          2.5862   -1.9061    5.2840 C.2       1 <0>        -0.0753
     15 C10         1.4505   -2.4211    5.7737 C.2       1 <0>         0.0153
     16 O3          1.3982   -2.9856    6.9989 O.3       1 <0>        -0.2974
     17 C11         2.6484   -3.3541    7.5933 C.3       1 <0>         0.0124
     18 C12         3.6291   -2.1881    7.4021 C.3       1 <0>         0.0182
     19 O4          3.7479   -1.9388    5.9945 O.3       1 <0>        -0.2855
     20 C13         0.3526   -2.7700   -2.3034 C.2       1 <0>        -0.2148
     21 H2          1.0042    1.8801    0.0026 H         1 <0>         0.0795
     22 H3         -0.5455    1.8639   -0.8728 H         1 <0>         0.0748
     23 H4         -0.5286    1.8543    0.9071 H         1 <0>         0.0711
     24 H5         -0.0014   -0.0761   -2.0830 H         1 <0>         0.1479
     25 H6          2.1304   -1.1852    1.2565 H         1 <0>         0.0786
     26 H7          1.7340    0.3933    1.9772 H         1 <0>         0.0929
     27 H8          0.6223   -1.6315    3.6023 H         1 <0>         0.4078
     28 H9          0.5537   -2.3834    5.1731 H         1 <0>         0.1796
     29 H10         2.5079   -3.5463    8.6569 H         1 <0>         0.1248
     30 H11         3.0388   -4.2473    7.1055 H         1 <0>         0.0836
     31 H12         3.2485   -1.3001    7.9066 H         1 <0>         0.0801
     32 H13         4.6036   -2.4556    7.8108 H         1 <0>         0.1247
     33 H14         0.6190   -2.2210   -3.1945 H         1 <0>         0.1255
     34 H15         0.3575   -3.8499   -2.3126 H         1 <0>         0.1084
     35 H16        -0.5530   -3.7535   -0.0752 H         1 <0>         0.4146
@<TRIPOS>BOND
     1    1    2 1
     2    1   21 1
     3    1   22 1
     4    1   23 1
     5    2    8 1
     6    2    3 2
     7    3    4 1
     8    3   24 1
     9    4    5 1
    10    4   20 2
    11    5    6 am
    12    5   35 1
    13    6    7 2
    14    6    8 1
    15    8    9 1
    16    8   10 1
    17   10   11 1
    18   10   25 1
    19   10   26 1
    20   11   12 am
    21   11   27 1
    22   12   13 2
    23   12   14 1
    24   14   19 1
    25   14   15 2
    26   15   16 1
    27   15   28 1
    28   16   17 1
    29   17   18 1
    30   17   29 1
    31   17   30 1
    32   18   19 1
    33   18   31 1
    34   18   32 1
    35   20   33 1
    36   20   34 1
