@<TRIPOS>MOLECULE
ZINC59015409
   45    47     0     0     0
SMALL
USER_CHARGES

@<TRIPOS>ATOM
      1 C1         -1.2662    1.1823    0.1816 C.3       1 <0>        -0.1160
      2 C2         -0.5849   -0.1584    0.0846 C.ar      1 <0>        -0.1192
      3 C3         -0.5706   -0.8408   -1.1165 C.ar      1 <0>        -0.0732
      4 C4          0.0542   -2.0704   -1.2076 C.ar      1 <0>        -0.1614
      5 C5          0.6675   -2.6226   -0.0949 C.ar      1 <0>         0.1136
      6 C6          0.6556   -1.9437    1.1101 C.ar      1 <0>        -0.1536
      7 C7          0.0336   -0.7056    1.2010 C.ar      1 <0>         0.1706
      8 N1          0.0246   -0.0134    2.4170 N.am      1 <0>        -0.6642
      9 C8         -0.0569   -0.6924    3.5783 C.2       1 <0>         0.5370
     10 O1         -0.0402   -1.9052    3.5742 O.2       1 <0>        -0.4948
     11 C9         -0.1688    0.0552    4.8820 C.3       1 <0>        -0.1643
     12 S1         -0.2598   -1.1296    6.2526 S.3       1 <0>         0.1190
     13 C10        -0.3855   -0.1136    7.6867 C.2       1 <0>         0.2160
     14 N2         -0.4725   -0.5547    8.9462 N.2       1 <0>        -0.5180
     15 C11        -0.5524    0.4696    9.7696 C.2       1 <0>         0.5624
     16 N3         -0.5168    1.6004    9.0328 N.pl3     1 <0>        -0.5032
     17 N4         -0.4032    1.1981    7.6923 N.2       1 <0>        -0.3232
     18 N5         -0.6555    0.3994   11.1466 N.pl3     1 <0>        -0.5493
     19 N6         -0.6819   -0.8476   11.7845 N.2       1 <0>        -0.2015
     20 C12        -0.7786   -0.9135   13.0774 C.2       1 <0>         0.1091
     21 C13        -0.8064   -2.2258   13.7486 C.ar      1 <0>        -0.0665
     22 C14        -0.7229   -3.4000   12.9957 C.ar      1 <0>        -0.0591
     23 C15        -0.7493   -4.6245   13.6276 C.ar      1 <0>        -0.1498
     24 C16        -0.8587   -4.6926   15.0104 C.ar      1 <0>         0.1246
     25 C17        -0.9424   -3.5282   15.7628 C.ar      1 <0>        -0.1510
     26 C18        -0.9105   -2.2991   15.1402 C.ar      1 <0>        -0.0716
     27 O2         -0.8843   -5.9020   15.6290 O.3       1 <0>        -0.4995
     28 F1          1.2771   -3.8248   -0.1867 F         1 <0>        -0.1346
     29 H1         -0.5516    1.9709   -0.0538 H         1 <0>         0.0745
     30 H2         -2.0953    1.2205   -0.5249 H         1 <0>         0.0753
     31 H3         -1.6446    1.3252    1.1938 H         1 <0>         0.0654
     32 H4         -1.0485   -0.4131   -1.9854 H         1 <0>         0.1386
     33 H5          0.0639   -2.6018   -2.1478 H         1 <0>         0.1383
     34 H6          1.1330   -2.3741    1.9780 H         1 <0>         0.1539
     35 H7          0.0770    0.9551    2.4241 H         1 <0>         0.4169
     36 H8          0.7053    0.6935    5.0110 H         1 <0>         0.1274
     37 H9         -1.0691    0.6695    4.8724 H         1 <0>         0.1276
     38 H10        -0.7095    1.2137   11.6710 H         1 <0>         0.4006
     39 H11        -0.8388   -0.0069   13.6613 H         1 <0>         0.1238
     40 H12        -0.6382   -3.3480   11.9203 H         1 <0>         0.1426
     41 H13        -0.6852   -5.5326   13.0464 H         1 <0>         0.1348
     42 H14        -1.0280   -3.5860   16.8379 H         1 <0>         0.1344
     43 H15        -0.9708   -1.3941   15.7265 H         1 <0>         0.1333
     44 H16        -0.0113   -6.2347   15.8786 H         1 <0>         0.3950
     45 H17        -0.5578    2.5110    9.3643 H         1 <0>         0.4392
@<TRIPOS>BOND
     1    1    2 1
     2    1   29 1
     3    1   30 1
     4    1   31 1
     5    2    7 ar
     6    2    3 ar
     7    3    4 ar
     8    3   32 1
     9    4    5 ar
    10    4   33 1
    11    5    6 ar
    12    5   28 1
    13    6    7 ar
    14    6   34 1
    15    7    8 1
    16    8    9 am
    17    8   35 1
    18    9   10 2
    19    9   11 1
    20   11   12 1
    21   11   36 1
    22   11   37 1
    23   12   13 1
    24   13   17 2
    25   13   14 1
    26   14   15 2
    27   15   16 1
    28   15   18 1
    29   16   17 1
    30   16   45 1
    31   18   19 1
    32   18   38 1
    33   19   20 2
    34   20   21 1
    35   20   39 1
    36   21   26 ar
    37   21   22 ar
    38   22   23 ar
    39   22   40 1
    40   23   24 ar
    41   23   41 1
    42   24   25 ar
    43   24   27 1
    44   25   26 ar
    45   25   42 1
    46   26   43 1
    47   27   44 1
