@<TRIPOS>MOLECULE
ZINC39359299
   53    57     0     0     0
SMALL
USER_CHARGES

@<TRIPOS>ATOM
      1 C1         -0.0173    1.4248    0.0099 C.3       1 <0>         0.0254
      2 O1          0.0021   -0.0041    0.0020 O.3       1 <0>        -0.3063
      3 C2          0.6262   -0.6188    1.0422 C.ar      1 <0>         0.1011
      4 C3          1.2021    0.1367    2.0510 C.ar      1 <0>        -0.1690
      5 C4          1.8358   -0.4897    3.1079 C.ar      1 <0>        -0.1090
      6 C5          1.8971   -1.8699    3.1612 C.ar      1 <0>        -0.0795
      7 C6          1.3251   -2.6295    2.1578 C.ar      1 <0>        -0.1637
      8 C7          0.6830   -2.0080    1.0988 C.ar      1 <0>         0.1027
      9 O2          0.1145   -2.7540    0.1140 O.3       1 <0>        -0.3056
     10 C8          0.2115   -4.1743    0.2380 C.3       1 <0>         0.0253
     11 C9          2.5896   -2.5476    4.3154 C.3       1 <0>        -0.0306
     12 H1          2.5395   -3.6292    4.1900 H         1 <0>         0.0909
     13 C10         4.0511   -2.1026    4.3727 C.3       1 <0>        -0.0952
     14 C11         4.7423   -2.7656    5.5470 C.2       1 <0>         0.2674
     15 C12         4.0491   -3.0412    6.6720 C.2       1 <0>        -0.3161
     16 C13         4.6998   -3.6762    7.8919 C.3       1 <0>         0.1052
     17 H2          4.1095   -4.5292    8.2267 H         1 <0>         0.1089
     18 C14         6.0649   -4.1319    7.4720 C.2       1 <0>        -0.1778
     19 C15         6.7940   -5.2001    7.7101 C.2       1 <0>         0.1775
     20 N1          7.9304   -5.1698    6.9614 N.2       1 <0>        -0.1466
     21 N2          8.0601   -4.1520    6.2686 N.2       1 <0>        -0.1317
     22 C16         6.9241   -3.2699    6.5419 C.3       1 <0>         0.2123
     23 H3          7.2335   -2.3350    7.0091 H         1 <0>         0.1569
     24 N3          6.0720   -3.0571    5.3697 N.pl3     1 <0>        -0.6925
     25 O3          6.4610   -6.1911    8.5784 O.3       1 <0>        -0.4355
     26 C17         4.8127   -2.6622    9.0010 C.ar      1 <0>        -0.1136
     27 C18         4.1929   -2.8846   10.2214 C.ar      1 <0>        -0.0489
     28 C19         4.3238   -1.9243   11.2126 C.ar      1 <0>        -0.1675
     29 C20         5.0624   -0.7851   10.9533 C.ar      1 <0>         0.0946
     30 N4          5.6378   -0.6067    9.7804 N.ar      1 <0>        -0.4822
     31 C21         5.5397   -1.5017    8.8166 C.ar      1 <0>         0.0979
     32 C22         2.6764   -2.7584    6.7725 C.2       1 <0>         0.4085
     33 O4          2.0925   -3.0137    7.8073 O.2       1 <0>        -0.4751
     34 C23         1.9122   -2.1482    5.6309 C.3       1 <0>        -0.1590
     35 H4          1.0053    1.8021    0.0021 H         1 <0>         0.0556
     36 H5         -0.5445    1.7859   -0.8732 H         1 <0>         0.1018
     37 H6         -0.5275    1.7763    0.9067 H         1 <0>         0.0558
     38 H7          1.1562    1.2150    2.0113 H         1 <0>         0.1370
     39 H8          2.2842    0.1003    3.8935 H         1 <0>         0.1281
     40 H9          1.3747   -3.7075    2.2017 H         1 <0>         0.1363
     41 H10        -0.2815   -4.6476   -0.6111 H         1 <0>         0.1019
     42 H11         1.2614   -4.4664    0.2576 H         1 <0>         0.0550
     43 H12        -0.2714   -4.4922    1.1620 H         1 <0>         0.0558
     44 H13         4.5534   -2.3878    3.4483 H         1 <0>         0.0928
     45 H14         4.0961   -1.0199    4.4897 H         1 <0>         0.1063
     46 H15         6.4438   -3.1219    4.4761 H         1 <0>         0.4203
     47 H16         7.1129   -6.9035    8.6310 H         1 <0>         0.4106
     48 H17         3.6215   -3.7844   10.3954 H         1 <0>         0.1364
     49 H18         3.8542   -2.0643   12.1750 H         1 <0>         0.1375
     50 H19         5.1692   -0.0321   11.7202 H         1 <0>         0.1569
     51 H20         6.0294   -1.3232    7.8707 H         1 <0>         0.1405
     52 H21         1.9153   -1.0626    5.7286 H         1 <0>         0.1021
     53 H22         0.8859   -2.5152    5.6396 H         1 <0>         0.0995
@<TRIPOS>BOND
     1    1    2 1
     2    1   35 1
     3    1   36 1
     4    1   37 1
     5    2    3 1
     6    3    8 ar
     7    3    4 ar
     8    4    5 ar
     9    4   38 1
    10    5    6 ar
    11    5   39 1
    12    6    7 ar
    13    6   11 1
    14    7    8 ar
    15    7   40 1
    16    8    9 1
    17    9   10 1
    18   10   41 1
    19   10   42 1
    20   10   43 1
    21   11   12 1
    22   11   34 1
    23   11   13 1
    24   13   14 1
    25   13   44 1
    26   13   45 1
    27   14   24 1
    28   14   15 2
    29   15   16 1
    30   15   32 1
    31   16   17 1
    32   16   18 1
    33   16   26 1
    34   18   22 1
    35   18   19 2
    36   19   20 1
    37   19   25 1
    38   20   21 2
    39   21   22 1
    40   22   23 1
    41   22   24 1
    42   24   46 1
    43   25   47 1
    44   26   31 ar
    45   26   27 ar
    46   27   28 ar
    47   27   48 1
    48   28   29 ar
    49   28   49 1
    50   29   30 ar
    51   29   50 1
    52   30   31 ar
    53   31   51 1
    54   32   33 2
    55   32   34 1
    56   34   52 1
    57   34   53 1
