@<TRIPOS>MOLECULE
ZINC38563221
   51    53     0     0     0
SMALL
USER_CHARGES

@<TRIPOS>ATOM
      1 C1         -1.2679    1.1818    0.1824 C.3       1 <0>        -0.1296
      2 C2         -0.5859   -0.1585    0.0848 C.ar      1 <0>        -0.0496
      3 C3         -0.5709   -0.8409   -1.1159 C.ar      1 <0>        -0.0999
      4 C4          0.0546   -2.0707   -1.2062 C.ar      1 <0>        -0.0592
      5 C5          0.6669   -2.6220   -0.0953 C.ar      1 <0>        -0.0373
      6 C6          0.6553   -1.9455    1.1083 C.ar      1 <0>        -0.0558
      7 C7          0.0334   -0.7064    1.2010 C.ar      1 <0>         0.1384
      8 N1          0.0252   -0.0162    2.4158 N.am      1 <0>        -0.6406
      9 C8         -0.0563   -0.6961    3.5767 C.2       1 <0>         0.5073
     10 O1         -0.0401   -1.9097    3.5716 O.2       1 <0>        -0.4782
     11 C9         -0.1666    0.0439    4.8693 C.2       1 <0>         0.5215
     12 O2         -0.1828    1.2573    4.8744 O.2       1 <0>        -0.4993
     13 N2         -0.2481   -0.6360    6.0302 N.am      1 <0>        -0.7192
     14 C10        -0.3563    0.0898    7.2981 C.3       1 <0>         0.1312
     15 C11        -0.4331   -0.9105    8.4534 C.3       1 <0>        -0.4913
     16 H1          0.4670   -1.5252    8.4622 H         1 <0>         0.1687
     17 C12        -0.5444   -0.1638    9.7577 C.2       1 <0>        -0.1839
     18 C13         0.2902   -0.1821   10.8256 C.2       1 <0>        -0.1038
     19 C14        -0.0150    0.5936   11.9282 C.2       1 <0>        -0.1665
     20 C15        -1.1399    1.3497   11.9090 C.2       1 <0>        -0.1537
     21 S1         -1.8055    0.9802   10.2942 S.3       1 <0>         0.0907
     22 S2         -1.8883   -1.9720    8.2383 S.o2      1 <0>         2.4836
     23 O3         -3.0749   -1.1919    8.2879 O.2       1 <0>        -0.9074
     24 O4         -1.6702   -2.8924    7.1778 O.2       1 <0>        -0.9175
     25 C16        -1.9425   -2.9660    9.6921 C.ar      1 <0>        -0.6549
     26 C17        -1.2780   -4.1777    9.7259 C.ar      1 <0>        -0.0090
     27 C18        -1.3202   -4.9579   10.8660 C.ar      1 <0>        -0.1299
     28 C19        -2.0277   -4.5258   11.9737 C.ar      1 <0>         0.0210
     29 C20        -2.6926   -3.3130   11.9393 C.ar      1 <0>        -0.1292
     30 C21        -2.6450   -2.5312   10.8005 C.ar      1 <0>        -0.0018
     31 Cl1        -2.0817   -5.5054   13.4059 Cl        1 <0>        -0.0493
     32 N3          1.3349   -3.9390   -0.1966 N.pl3     1 <0>         0.0335
     33 O5          1.3451   -4.5322   -1.2501 O.2       1 <0>        -0.1549
     34 O6          1.8703   -4.4216    0.7740 O.3       1 <0>        -0.1512
     35 H2         -0.5537    1.9709   -0.0529 H         1 <0>         0.0886
     36 H3         -2.0971    1.2198   -0.5241 H         1 <0>         0.0862
     37 H4         -1.6463    1.3241    1.1946 H         1 <0>         0.0757
     38 H5         -1.0486   -0.4136   -1.9851 H         1 <0>         0.1557
     39 H6          0.0648   -2.6022   -2.1464 H         1 <0>         0.1580
     40 H7          1.1330   -2.3769    1.9756 H         1 <0>         0.1708
     41 H8          0.0781    0.9524    2.4237 H         1 <0>         0.4299
     42 H9         -0.2351   -1.6060    6.0261 H         1 <0>         0.4237
     43 H10         0.5181    0.7276    7.4274 H         1 <0>         0.1141
     44 H11        -1.2563    0.7045    7.2893 H         1 <0>         0.1016
     45 H12         1.1801   -0.7939   10.8153 H         1 <0>         0.1394
     46 H13         0.6329    0.5970   12.7922 H         1 <0>         0.1414
     47 H14        -1.5300    2.0079   12.6712 H         1 <0>         0.1932
     48 H15        -0.7260   -4.5150    8.8610 H         1 <0>         0.1533
     49 H16        -0.8013   -5.9047   10.8921 H         1 <0>         0.1478
     50 H17        -3.2453   -2.9754   12.8035 H         1 <0>         0.1466
     51 H18        -3.1600   -1.5822   10.7752 H         1 <0>         0.1507
@<TRIPOS>BOND
     1    1    2 1
     2    1   35 1
     3    1   36 1
     4    1   37 1
     5    2    7 ar
     6    2    3 ar
     7    3    4 ar
     8    3   38 1
     9    4    5 ar
    10    4   39 1
    11    5    6 ar
    12    5   32 1
    13    6    7 ar
    14    6   40 1
    15    7    8 1
    16    8    9 am
    17    8   41 1
    18    9   10 2
    19    9   11 1
    20   11   12 2
    21   11   13 am
    22   13   14 1
    23   13   42 1
    24   14   15 1
    25   14   43 1
    26   14   44 1
    27   15   16 1
    28   15   17 1
    29   15   22 1
    30   17   21 1
    31   17   18 2
    32   18   19 1
    33   18   45 1
    34   19   20 2
    35   19   46 1
    36   20   21 1
    37   20   47 1
    38   22   23 2
    39   22   24 2
    40   22   25 1
    41   25   30 ar
    42   25   26 ar
    43   26   27 ar
    44   26   48 1
    45   27   28 ar
    46   27   49 1
    47   28   29 ar
    48   28   31 1
    49   29   30 ar
    50   29   50 1
    51   30   51 1
    52   32   33 2
    53   32   34 1
