@<TRIPOS>MOLECULE
ZINC20673885
   54    58     0     0     0
SMALL
USER_CHARGES
(5S)-5-[(1R)-1-cyclohex-3-enyl]-2-morpholino-3,5,7,8,9,10-hexahydropyrimido[6,5-b]quinoline-4,6-dione
@<TRIPOS>ATOM
      1 C1         -4.9976    1.8003   -7.9957 C.3       1 <0>        -0.1127
      2 C2         -4.6251    1.4750   -6.5476 C.3       1 <0>        -0.0953
      3 C3         -3.8554    2.6286   -5.9510 C.2       1 <0>         0.2205
      4 C4         -4.0856    3.8972   -6.3497 C.2       1 <0>        -0.2696
      5 C5         -3.3245    5.0543   -5.7538 C.3       1 <0>         0.0650
      6 H1         -4.0418    5.8591   -5.5351 H         1 <0>         0.0834
      7 C6         -2.6674    4.6690   -4.4621 C.2       1 <0>        -0.3202
      8 C7         -2.2241    5.6544   -3.5721 C.2       1 <0>         0.5515
      9 O1         -2.3689    6.8383   -3.8324 O.2       1 <0>        -0.5283
     10 N1         -1.6332    5.2707   -2.4208 N.am      1 <0>        -0.6483
     11 H2         -1.2797    6.0276   -1.7051 H         1 <0>         0.4446
     12 C8         -1.4732    3.9482   -2.1424 C.2       1 <0>         0.5967
     13 N2         -1.8837    3.0171   -2.9778 N.2       1 <0>        -0.5899
     14 C9         -2.4843    3.3386   -4.1293 C.2       1 <0>         0.4362
     15 N3         -2.9202    2.3518   -4.9912 N.pl3     1 <0>        -0.6351
     16 N4         -0.8674    3.5782   -0.9714 N.pl3     1 <0>        -0.4772
     17 C10        -0.6831    2.1210   -0.9110 C.3       1 <0>         0.0365
     18 C11         0.0491    1.7577    0.3836 C.3       1 <0>         0.0559
     19 O2         -0.6912    2.2566    1.5010 O.3       1 <0>        -0.3777
     20 C12        -0.8897    3.6726    1.4742 C.3       1 <0>         0.0624
     21 C13        -1.6314    4.0552    0.1906 C.3       1 <0>         0.0166
     22 C14        -2.2516    5.5096   -6.7450 C.3       1 <0>        -0.0709
     23 H3         -1.6542    6.3077   -6.2800 H         1 <0>         0.0734
     24 C15        -2.9188    6.0247   -8.0265 C.3       1 <0>        -0.1042
     25 C16        -1.8393    6.6352   -8.9228 C.3       1 <0>        -0.0983
     26 C17        -0.6843    5.6870   -9.0603 C.2       1 <0>        -0.1513
     27 C18        -0.4702    4.6852   -8.2690 C.2       1 <0>        -0.1609
     28 C19        -1.3525    4.3262   -7.1094 C.3       1 <0>        -0.0767
     29 C20        -5.0437    4.1822   -7.3390 C.2       1 <0>         0.3956
     30 O3         -5.2399    5.3369   -7.6628 O.2       1 <0>        -0.4576
     31 C21        -5.8306    3.0866   -8.0038 C.3       1 <0>        -0.1715
     32 H4         -5.5884    0.9782   -8.4260 H         1 <0>         0.0866
     33 H5         -4.0867    1.9495   -8.5941 H         1 <0>         0.0759
     34 H6         -5.5411    1.3054   -5.9626 H         1 <0>         0.1001
     35 H7         -4.0020    0.5688   -6.5240 H         1 <0>         0.0900
     36 H8         -2.5087    1.3357   -4.9011 H         1 <0>         0.4446
     37 H9         -1.6653    1.6261   -0.9302 H         1 <0>         0.0754
     38 H10        -0.0890    1.7904   -1.7757 H         1 <0>         0.1051
     39 H11         0.1385    0.6640    0.4597 H         1 <0>         0.1124
     40 H12         1.0527    2.2080    0.3760 H         1 <0>         0.0656
     41 H13        -1.4851    3.9760    2.3480 H         1 <0>         0.1135
     42 H14         0.0858    4.1802    1.5011 H         1 <0>         0.0694
     43 H15        -1.7355    5.1490    0.1371 H         1 <0>         0.0984
     44 H16        -2.6289    3.5915    0.1891 H         1 <0>         0.0708
     45 H17        -3.4098    5.1885   -8.5458 H         1 <0>         0.0622
     46 H18        -3.6686    6.7871   -7.7686 H         1 <0>         0.0778
     47 H19        -2.2606    6.8370   -9.9187 H         1 <0>         0.0687
     48 H20        -1.4824    7.5759   -8.4782 H         1 <0>         0.0707
     49 H21         0.0033    5.8847   -9.8958 H         1 <0>         0.1001
     50 H22         0.4035    4.0360   -8.4276 H         1 <0>         0.0981
     51 H23        -0.7238    4.0638   -6.2457 H         1 <0>         0.0555
     52 H24        -1.9762    3.4629   -7.3847 H         1 <0>         0.0699
     53 H25        -6.0575    3.3699   -9.0422 H         1 <0>         0.0973
     54 H26        -6.7696    2.9188   -7.4560 H         1 <0>         0.0996
@<TRIPOS>BOND
     1    1   31 1
     2    1    2 1
     3    1   32 1
     4    1   33 1
     5    2    3 1
     6    2   34 1
     7    2   35 1
     8    3   15 1
     9    3    4 2
    10    4    5 1
    11    4   29 1
    12    5    6 1
    13    5    7 1
    14    5   22 1
    15    7   14 2
    16    7    8 1
    17    8    9 2
    18    8   10 am
    19   10   11 1
    20   10   12 1
    21   12   13 2
    22   12   16 1
    23   13   14 1
    24   14   15 1
    25   15   36 1
    26   16   21 1
    27   16   17 1
    28   17   18 1
    29   17   37 1
    30   17   38 1
    31   18   19 1
    32   18   39 1
    33   18   40 1
    34   19   20 1
    35   20   21 1
    36   20   41 1
    37   20   42 1
    38   21   43 1
    39   21   44 1
    40   22   23 1
    41   22   28 1
    42   22   24 1
    43   24   25 1
    44   24   45 1
    45   24   46 1
    46   25   26 1
    47   25   47 1
    48   25   48 1
    49   26   27 2
    50   26   49 1
    51   27   28 1
    52   27   50 1
    53   28   51 1
    54   28   52 1
    55   29   30 2
    56   29   31 1
    57   31   53 1
    58   31   54 1
