@<TRIPOS>MOLECULE
ZINC08990757
   49    52     0     0     0
SMALL
USER_CHARGES

@<TRIPOS>ATOM
      1 C1         -0.5818    1.5088    0.0800 C.3       1 <0>        -0.1074
      2 C2         -0.5842    0.0018    0.0709 C.ar      1 <0>         0.1847
      3 C3         -0.7607   -0.6796   -1.1244 C.ar      1 <0>        -0.1662
      4 C4         -0.7646   -2.0543   -1.1473 C.ar      1 <0>         0.0169
      5 C5         -0.5858   -2.7621    0.0673 C.ar      1 <0>        -0.1908
      6 C6         -0.5537   -4.2003    0.2849 C.2       1 <0>         0.2856
      7 C7         -0.3647   -4.6635    1.5657 C.2       1 <0>        -0.3045
      8 S1         -0.2225   -3.1705    2.5282 S.3       1 <0>         0.1584
      9 C8         -0.4142   -1.9755    1.2289 C.ar      1 <0>         0.1247
     10 N1         -0.4131   -0.6603    1.1984 N.ar      1 <0>        -0.4539
     11 C9         -0.2969   -6.0525    2.0286 C.2       1 <0>         0.5965
     12 O1         -0.4152   -6.9683    1.2302 O.2       1 <0>        -0.5375
     13 N2         -0.1047   -6.3175    3.3298 N.2       1 <0>        -0.5859
     14 C10        -0.0434   -7.5745    3.7487 C.2       1 <0>         0.4582
     15 N3          0.1380   -8.0448    5.0156 N.pl3     1 <0>        -0.6068
     16 H1          0.2425   -7.4220    5.7517 H         1 <0>         0.4230
     17 C11         0.1730   -9.4084    5.2555 C.ar      1 <0>         0.1051
     18 C12         0.3500  -10.0549    6.4913 C.ar      1 <0>        -0.0897
     19 C13         0.3635  -11.4253    6.5770 C.ar      1 <0>        -0.0844
     20 C14         0.2033  -12.2192    5.4464 C.ar      1 <0>         0.1512
     21 C15         0.0266  -11.6056    4.2124 C.ar      1 <0>        -0.0697
     22 C16         0.0135  -10.2337    4.1325 C.ar      1 <0>        -0.1523
     23 S2         -0.1851   -9.0786    2.7974 S.3       1 <0>         0.1045
     24 N4          0.2203  -13.6160    5.5501 N.am      1 <0>        -0.6720
     25 C17        -0.2632  -14.2156    6.6560 C.2       1 <0>         0.5124
     26 O2         -0.7995  -13.5537    7.5194 O.2       1 <0>        -0.5219
     27 C18        -0.1374  -15.7084    6.8200 C.3       1 <0>        -0.1722
     28 N5         -0.7109   -5.0849   -0.7763 N.pl3     1 <0>        -0.8379
     29 C19        -0.9566   -2.7972   -2.4443 C.3       1 <0>         0.0868
     30 O3         -1.1140   -1.8597   -3.5113 O.3       1 <0>        -0.3804
     31 C20        -1.3036   -2.4638   -4.7924 C.3       1 <0>         0.0275
     32 H2          0.4348    1.8714   -0.0724 H         1 <0>         0.0878
     33 H3         -1.2230    1.8780   -0.7203 H         1 <0>         0.0837
     34 H4         -0.9553    1.8669    1.0394 H         1 <0>         0.0844
     35 H5         -0.8962   -0.1270   -2.0424 H         1 <0>         0.1548
     36 H6          0.4777   -9.4648    7.3868 H         1 <0>         0.1392
     37 H7          0.5014  -11.8951    7.5397 H         1 <0>         0.1492
     38 H8         -0.1000  -12.2030    3.3216 H         1 <0>         0.1433
     39 H9          0.5801  -14.1517    4.8259 H         1 <0>         0.4160
     40 H10         0.8001  -15.9407    7.3252 H         1 <0>         0.1009
     41 H11        -0.9721  -16.0803    7.4140 H         1 <0>         0.0998
     42 H12        -0.1490  -16.1838    5.8392 H         1 <0>         0.0846
     43 H13        -0.8439   -4.7453   -1.6751 H         1 <0>         0.3943
     44 H14        -0.6875   -6.0416   -0.6178 H         1 <0>         0.4203
     45 H15        -0.0856   -3.4236   -2.6366 H         1 <0>         0.0759
     46 H16        -1.8464   -3.4230   -2.3763 H         1 <0>         0.0759
     47 H17        -0.4398   -3.0834   -5.0334 H         1 <0>         0.0466
     48 H18        -2.2007   -3.0827   -4.7731 H         1 <0>         0.0466
     49 H19        -1.4150   -1.6860   -5.5479 H         1 <0>         0.0947
@<TRIPOS>BOND
     1    1    2 1
     2    1   32 1
     3    1   33 1
     4    1   34 1
     5    2   10 ar
     6    2    3 ar
     7    3    4 ar
     8    3   35 1
     9    4    5 ar
    10    4   29 1
    11    5    9 ar
    12    5    6 1
    13    6    7 2
    14    6   28 1
    15    7    8 1
    16    7   11 1
    17    8    9 1
    18    9   10 ar
    19   11   12 2
    20   11   13 1
    21   13   14 2
    22   14   23 1
    23   14   15 1
    24   15   16 1
    25   15   17 1
    26   17   22 ar
    27   17   18 ar
    28   18   19 ar
    29   18   36 1
    30   19   20 ar
    31   19   37 1
    32   20   21 ar
    33   20   24 1
    34   21   22 ar
    35   21   38 1
    36   22   23 1
    37   24   25 am
    38   24   39 1
    39   25   26 2
    40   25   27 1
    41   27   40 1
    42   27   41 1
    43   27   42 1
    44   28   43 1
    45   28   44 1
    46   29   30 1
    47   29   45 1
    48   29   46 1
    49   30   31 1
    50   31   47 1
    51   31   48 1
    52   31   49 1
