@<TRIPOS>MOLECULE
ZINC27365267
   56    59     0     0     0
SMALL
USER_CHARGES
1-[2-[methyl-[(1S)-1-[4-(1,2,4-triazol-1-yl)phenyl]ethyl]amino]acetyl]indoline-5-sulfonamide
@<TRIPOS>ATOM
      1 C1          3.4239    0.6966    4.0063 C.3       1 <0>        -0.1836
      2 C2          2.3033   -0.1843    4.5623 C.3       1 <0>         0.0878
      3 H1          2.3381   -1.1912    4.1209 H         1 <0>         0.1453
      4 C3          2.4365   -0.2806    6.0603 C.ar      1 <0>        -0.1485
      5 C4          1.9835    0.7517    6.8611 C.ar      1 <0>        -0.0909
      6 C5          2.0990    0.6638    8.2347 C.ar      1 <0>        -0.1253
      7 C6          2.6814   -0.4572    8.8106 C.ar      1 <0>         0.1913
      8 C7          3.1404   -1.4896    8.0036 C.ar      1 <0>        -0.1043
      9 C8          3.0165   -1.3986    6.6310 C.ar      1 <0>        -0.0591
     10 N1          2.8053   -0.5468   10.2042 N.pl3     1 <0>        -0.3500
     11 C9          2.4145    0.3702   11.1105 C.2       1 <0>         0.2689
     12 N2          2.7027   -0.0890   12.3014 N.2       1 <0>        -0.5233
     13 C10         3.2821   -1.2846   12.1972 C.2       1 <0>         0.2258
     14 N3          3.3670   -1.6077   10.9332 N.2       1 <0>        -0.3119
     15 N4          1.0019    0.4069    4.2234 N.4       1 <0>        -0.3912
     16 C11        -0.0975   -0.3621    4.8217 C.3       1 <0>        -0.0586
     17 C12         0.8365    0.5166    2.7679 C.3       1 <0>        -0.0296
     18 C13        -0.3865    1.3423    2.4621 C.2       1 <0>         0.5137
     19 O1         -1.0546    1.7949    3.3676 O.2       1 <0>        -0.5050
     20 N5         -0.7379    1.5779    1.1824 N.am      1 <0>        -0.5365
     21 C14        -0.0127    1.0858    0.0080 C.3       1 <0>         0.0852
     22 C15        -0.7968    1.6152   -1.2038 C.3       1 <0>        -0.0898
     23 C16        -1.9466    2.3925   -0.6034 C.ar      1 <0>        -0.1381
     24 C17        -1.8493    2.3274    0.7777 C.ar      1 <0>         0.1775
     25 C18        -2.8094    2.9763    1.5560 C.ar      1 <0>        -0.1400
     26 C19        -3.8387    3.6697    0.9553 C.ar      1 <0>         0.0007
     27 C20        -3.9268    3.7286   -0.4232 C.ar      1 <0>        -0.6678
     28 C21        -2.9790    3.0891   -1.2008 C.ar      1 <0>         0.0295
     29 S1         -5.2430    4.6167   -1.1870 S.o2      1 <0>         2.6363
     30 O2         -5.6858    5.5800   -0.2408 O.2       1 <0>        -0.9798
     31 O3         -4.7907    4.9761   -2.4853 O.2       1 <0>        -0.9455
     32 N6         -6.4936    3.5521   -1.3993 N.pl3     1 <0>        -1.1616
     33 H2          3.3267    0.7669    2.9129 H         1 <0>         0.0845
     34 H3          4.3984    0.2539    4.2601 H         1 <0>         0.1143
     35 H4          3.3522    1.7022    4.4462 H         1 <0>         0.0869
     36 H5          1.5349    1.6256    6.4123 H         1 <0>         0.1318
     37 H6          1.7414    1.4686    8.8598 H         1 <0>         0.1457
     38 H7          3.5935   -2.3630    8.4488 H         1 <0>         0.1522
     39 H8          3.3734   -2.2013    6.0028 H         1 <0>         0.1454
     40 H9          1.9435    1.3173   10.8925 H         1 <0>         0.2264
     41 H10         3.6257   -1.8891   13.0236 H         1 <0>         0.2310
     42 H11        -1.0581    0.1014    4.5526 H         1 <0>         0.1380
     43 H12         0.0127   -0.3685    5.9161 H         1 <0>         0.1295
     44 H13        -0.0703   -1.3950    4.4443 H         1 <0>         0.1202
     45 H14         1.7237    1.0006    2.3335 H         1 <0>         0.1682
     46 H15         0.7182   -0.4879    2.3355 H         1 <0>         0.1647
     47 H16         1.0165    1.4738    0.0235 H         1 <0>         0.0970
     48 H17         0.0097   -0.0138    0.0251 H         1 <0>         0.0971
     49 H18        -0.1423    2.2567   -1.8122 H         1 <0>         0.1075
     50 H19        -1.1481    0.7684   -1.8116 H         1 <0>         0.1076
     51 H20        -2.7461    2.9344    2.6334 H         1 <0>         0.1498
     52 H21        -4.5784    4.1688    1.5637 H         1 <0>         0.1530
     53 H22        -3.0463    3.1341   -2.2778 H         1 <0>         0.1536
     54 H23        -7.3391    4.0700   -1.8758 H         1 <0>         0.4193
     55 H24        -6.8090    3.1574   -0.4222 H         1 <0>         0.4093
     56 H25         0.9722    1.4227    4.6444 H         1 <0>         0.4453
@<TRIPOS>BOND
     1    1    2 1
     2    1   33 1
     3    1   34 1
     4    1   35 1
     5    2    3 1
     6    2    4 1
     7    2   15 1
     8    4    9 ar
     9    4    5 ar
    10    5    6 ar
    11    5   36 1
    12    6    7 ar
    13    6   37 1
    14    7    8 ar
    15    7   10 1
    16    8    9 ar
    17    8   38 1
    18    9   39 1
    19   10   14 1
    20   10   11 1
    21   11   12 2
    22   11   40 1
    23   12   13 1
    24   13   14 2
    25   13   41 1
    26   15   16 1
    27   15   17 1
    28   15   56 1
    29   16   42 1
    30   16   43 1
    31   16   44 1
    32   17   18 1
    33   17   45 1
    34   17   46 1
    35   18   19 2
    36   18   20 am
    37   20   24 1
    38   20   21 1
    39   21   22 1
    40   21   47 1
    41   21   48 1
    42   22   23 1
    43   22   49 1
    44   22   50 1
    45   23   28 ar
    46   23   24 ar
    47   24   25 ar
    48   25   26 ar
    49   25   51 1
    50   26   27 ar
    51   26   52 1
    52   27   28 ar
    53   27   29 1
    54   28   53 1
    55   29   30 2
    56   29   31 2
    57   29   32 1
    58   32   54 1
    59   32   55 1
