@<TRIPOS>MOLECULE
ZINC67396056
   52    54     0     0     0
SMALL
USER_CHARGES

@<TRIPOS>ATOM
      1 C1         -0.0317    1.5378    0.0189 C.3       1 <0>        -0.1668
      2 C2         -0.0022    0.0082    0.0027 C.3       1 <0>         0.1450
      3 H1          0.5088   -0.3358   -0.8966 H         1 <0>         0.0971
      4 C3          0.7425   -0.5006    1.2386 C.3       1 <0>        -0.0896
      5 C4          0.8790   -1.9994    1.1612 C.ar      1 <0>        -0.0967
      6 C5         -0.1039   -2.8105    1.6976 C.ar      1 <0>        -0.0970
      7 C6          0.0191   -4.1847    1.6284 C.ar      1 <0>        -0.1414
      8 C7          1.1298   -4.7508    1.0195 C.ar      1 <0>         0.1034
      9 C8          2.1143   -3.9347    0.4817 C.ar      1 <0>        -0.1423
     10 C9          1.9841   -2.5611    0.5489 C.ar      1 <0>        -0.0975
     11 O1          1.2533   -6.1024    0.9505 O.3       1 <0>        -0.5000
     12 N1         -1.3736   -0.5069    0.0125 N.am      1 <0>        -0.6893
     13 C10        -2.0530   -0.6365   -1.1443 C.2       1 <0>         0.5134
     14 O2         -1.5286   -0.3265   -2.1940 O.2       1 <0>        -0.5132
     15 C11        -3.4509   -1.1615   -1.1343 C.2       1 <0>         0.5080
     16 O3         -3.9753   -1.4715   -0.0844 O.2       1 <0>        -0.4950
     17 N2         -4.1302   -1.2911   -2.2911 N.am      1 <0>        -0.6429
     18 C12        -5.4026   -1.8724   -2.2936 C.ar      1 <0>         0.1627
     19 C13        -5.8034   -2.6619   -3.3641 C.ar      1 <0>        -0.1404
     20 C14        -7.0589   -3.2363   -3.3672 C.ar      1 <0>        -0.0772
     21 C15        -7.9221   -3.0255   -2.3003 C.ar      1 <0>         0.1474
     22 C16        -7.5218   -2.2352   -1.2279 C.ar      1 <0>         0.1119
     23 C17        -6.2631   -1.6647   -1.2228 C.ar      1 <0>        -0.1523
     24 F1         -8.3612   -2.0296   -0.1895 F         1 <0>        -0.1287
     25 N3         -9.1952   -3.6078   -2.3041 N.pl3     1 <0>        -0.6847
     26 C18       -10.4135   -3.0005   -2.8594 C.3       1 <0>         0.1324
     27 C19       -11.5715   -3.9909   -2.6149 C.3       1 <0>        -0.1309
     28 C20       -11.0497   -4.8509   -1.4336 C.3       1 <0>        -0.1335
     29 C21        -9.5350   -4.9342   -1.7576 C.3       1 <0>         0.1314
     30 H2          0.9886    1.9211    0.0116 H         1 <0>         0.0736
     31 H3         -0.5623    1.9003   -0.8616 H         1 <0>         0.0647
     32 H4         -0.5427    1.8819    0.9182 H         1 <0>         0.0622
     33 H5          1.7329   -0.0471    1.2783 H         1 <0>         0.0967
     34 H6          0.1839   -0.2324    2.1354 H         1 <0>         0.0837
     35 H7         -0.9683   -2.3694    2.1715 H         1 <0>         0.1245
     36 H8         -0.7486   -4.8179    2.0482 H         1 <0>         0.1290
     37 H9          2.9799   -4.3730    0.0072 H         1 <0>         0.1293
     38 H10         2.7482   -1.9253    0.1264 H         1 <0>         0.1281
     39 H11         0.8647   -6.4928    0.1557 H         1 <0>         0.3916
     40 H12        -1.7927   -0.7546    0.8515 H         1 <0>         0.4118
     41 H13        -3.7369   -0.9814   -3.1219 H         1 <0>         0.4267
     42 H14        -5.1327   -2.8261   -4.1945 H         1 <0>         0.1378
     43 H15        -7.3699   -3.8497   -4.2000 H         1 <0>         0.1395
     44 H16        -5.9500   -1.0544   -0.3887 H         1 <0>         0.1525
     45 H17       -10.6203   -2.0566   -2.3550 H         1 <0>         0.0487
     46 H18       -10.2894   -2.8321   -3.9291 H         1 <0>         0.0504
     47 H19       -12.4805   -3.4594   -2.3330 H         1 <0>         0.0781
     48 H20       -11.7426   -4.6093   -3.4960 H         1 <0>         0.0737
     49 H21       -11.2219   -4.3509   -0.4804 H         1 <0>         0.0740
     50 H22       -11.5041   -5.8416   -1.4409 H         1 <0>         0.0794
     51 H23        -9.3455   -5.7100   -2.4995 H         1 <0>         0.0516
     52 H24        -8.9634   -5.1283   -0.8500 H         1 <0>         0.0590
@<TRIPOS>BOND
     1    1    2 1
     2    1   30 1
     3    1   31 1
     4    1   32 1
     5    2    3 1
     6    2    4 1
     7    2   12 1
     8    4    5 1
     9    4   33 1
    10    4   34 1
    11    5   10 ar
    12    5    6 ar
    13    6    7 ar
    14    6   35 1
    15    7    8 ar
    16    7   36 1
    17    8    9 ar
    18    8   11 1
    19    9   10 ar
    20    9   37 1
    21   10   38 1
    22   11   39 1
    23   12   13 am
    24   12   40 1
    25   13   14 2
    26   13   15 1
    27   15   16 2
    28   15   17 am
    29   17   18 1
    30   17   41 1
    31   18   23 ar
    32   18   19 ar
    33   19   20 ar
    34   19   42 1
    35   20   21 ar
    36   20   43 1
    37   21   22 ar
    38   21   25 1
    39   22   23 ar
    40   22   24 1
    41   23   44 1
    42   25   29 1
    43   25   26 1
    44   26   27 1
    45   26   45 1
    46   26   46 1
    47   27   28 1
    48   27   47 1
    49   27   48 1
    50   28   29 1
    51   28   49 1
    52   28   50 1
    53   29   51 1
    54   29   52 1
