@<TRIPOS>MOLECULE
ZINC64409673
   49    52     0     0     0
SMALL
USER_CHARGES

@<TRIPOS>ATOM
      1 C1         -0.0187    1.5258    0.0104 C.3       1 <0>        -0.1274
      2 C2          0.0021   -0.0041    0.0020 C.3       1 <0>         0.1376
      3 H1          0.4958   -0.3892   -0.8902 H         1 <0>         0.0858
      4 N1         -1.3719   -0.5732    0.1589 N.3       1 <0>        -0.5281
      5 N2         -1.3502   -1.9224    0.6843 N.3       1 <0>        -0.5554
      6 C3         -0.2466   -2.2248    1.6272 C.3       1 <0>         0.1535
      7 H2          0.3308   -3.0847    1.2877 H         1 <0>         0.1199
      8 S1          0.7621   -0.6819    1.5454 S.3       1 <0>        -0.2768
      9 C4         -0.7835   -2.4543    3.0414 C.3       1 <0>        -0.1070
     10 H3         -1.3007   -1.5581    3.3840 H         1 <0>         0.0901
     11 C5          0.3804   -2.7647    3.9855 C.3       1 <0>        -0.1180
     12 C6         -0.1521   -2.9621    5.4066 C.3       1 <0>        -0.1341
     13 C7         -1.1195   -4.1498    5.4248 C.3       1 <0>         0.0971
     14 N3         -2.1630   -3.9253    4.4152 N.am      1 <0>        -0.5970
     15 C8         -1.7586   -3.6357    3.0326 C.3       1 <0>         0.1181
     16 C9         -3.4670   -3.9837    4.7508 C.2       1 <0>         0.5229
     17 O1         -4.3190   -3.7965    3.9081 O.2       1 <0>        -0.5348
     18 C10        -3.8665   -4.2817    6.1730 C.3       1 <0>        -0.1167
     19 C11        -5.3696   -4.2900    6.2813 C.2       1 <0>         0.0856
     20 C12        -6.1838   -5.3679    6.2136 C.ar      1 <0>        -0.1611
     21 C13        -5.9239   -6.8001    6.0247 C.ar      1 <0>        -0.0114
     22 C14        -6.9686   -7.6586    5.9990 C.ar      1 <0>        -0.1505
     23 C15        -8.2902   -7.2159    6.1474 C.ar      1 <0>         0.0537
     24 C16        -8.6082   -5.9161    6.3247 C.ar      1 <0>        -0.2090
     25 C17        -7.5882   -4.9260    6.3683 C.ar      1 <0>         0.3303
     26 N4         -7.6402   -3.6256    6.5257 N.pl3     1 <0>        -0.5822
     27 C18        -6.2724   -3.0956    6.4945 C.3       1 <0>         0.0640
     28 H4          1.0039    1.9031    0.0027 H         1 <0>         0.0767
     29 H5         -0.5459    1.8868   -0.8726 H         1 <0>         0.0776
     30 H6         -0.5289    1.8773    0.9072 H         1 <0>         0.0757
     31 H7         -1.8818   -0.5320   -0.7108 H         1 <0>         0.3644
     32 H8         -2.2438   -2.1698    1.0823 H         1 <0>         0.3663
     33 H9          0.8823   -3.6745    3.6561 H         1 <0>         0.0739
     34 H10         1.0878   -1.9356    3.9746 H         1 <0>         0.0801
     35 H11         0.6798   -3.1601    6.0826 H         1 <0>         0.0885
     36 H12        -0.6757   -2.0615    5.7273 H         1 <0>         0.0712
     37 H13        -0.5772   -5.0663    5.1923 H         1 <0>         0.0846
     38 H14        -1.5768   -4.2335    6.4107 H         1 <0>         0.0883
     39 H15        -2.6372   -3.3800    2.4403 H         1 <0>         0.0983
     40 H16        -1.2690   -4.5105    2.6048 H         1 <0>         0.0835
     41 H17        -3.4759   -5.2570    6.4633 H         1 <0>         0.1380
     42 H18        -3.4589   -3.5160    6.8329 H         1 <0>         0.1402
     43 H19        -4.9134   -7.1629    5.9077 H         1 <0>         0.1580
     44 H20        -6.7796   -8.7128    5.8602 H         1 <0>         0.1578
     45 H21        -9.0867   -7.9446    6.1183 H         1 <0>         0.1611
     46 H22        -9.6429   -5.6264    6.4338 H         1 <0>         0.1609
     47 H23        -6.0343   -2.6086    7.4401 H         1 <0>         0.1738
     48 H24        -6.1636   -2.3906    5.6703 H         1 <0>         0.1761
     49 H25        -8.4476   -3.1018    6.6465 H         1 <0>         0.4559
@<TRIPOS>BOND
     1    1    2 1
     2    1   28 1
     3    1   29 1
     4    1   30 1
     5    2    3 1
     6    2    8 1
     7    2    4 1
     8    4    5 1
     9    4   31 1
    10    5    6 1
    11    5   32 1
    12    6    7 1
    13    6    8 1
    14    6    9 1
    15    9   10 1
    16    9   15 1
    17    9   11 1
    18   11   12 1
    19   11   33 1
    20   11   34 1
    21   12   13 1
    22   12   35 1
    23   12   36 1
    24   13   14 1
    25   13   37 1
    26   13   38 1
    27   14   15 1
    28   14   16 am
    29   15   39 1
    30   15   40 1
    31   16   17 2
    32   16   18 1
    33   18   19 1
    34   18   41 1
    35   18   42 1
    36   19   27 1
    37   19   20 2
    38   20   25 ar
    39   20   21 ar
    40   21   22 ar
    41   21   43 1
    42   22   23 ar
    43   22   44 1
    44   23   24 ar
    45   23   45 1
    46   24   25 ar
    47   24   46 1
    48   25   26 2
    49   26   27 1
    50   26   49 1
    51   27   47 1
    52   27   48 1
