@<TRIPOS>MOLECULE
ZINC48365276
   42    44     0     0     0
SMALL
USER_CHARGES

@<TRIPOS>ATOM
      1 C1         -0.0184    1.5028    0.0103 C.3       1 <0>        -0.1357
      2 C2          0.0021   -0.0041    0.0020 C.2       1 <0>         0.1117
      3 C3         -1.1630   -0.7123    0.0037 C.2       1 <0>        -0.2632
      4 C4         -1.1258   -2.1157   -0.0041 C.2       1 <0>         0.5567
      5 O1         -2.1707   -2.7450   -0.0030 O.2       1 <0>        -0.5265
      6 N1          0.0463   -2.7762   -0.0132 N.am      1 <0>        -0.6016
      7 H1          0.0497   -3.7462   -0.0187 H         1 <0>         0.4121
      8 C5          1.2258   -2.1006   -0.0151 C.2       1 <0>         0.4406
      9 C6          1.2235   -0.7018   -0.0134 C.2       1 <0>        -0.3323
     10 C7          2.6288   -0.2775   -0.0241 C.2       1 <0>         0.5746
     11 O2          3.0412    0.8672   -0.0215 O.2       1 <0>        -0.5128
     12 N2          3.3749   -1.4016   -0.0370 N.am      1 <0>        -0.5064
     13 H2          4.3443   -1.4336   -0.0462 H         1 <0>         0.4444
     14 N3          2.5267   -2.5131   -0.0239 N.pl3     1 <0>        -0.3853
     15 C8          2.9678   -3.9101   -0.0329 C.3       1 <0>         0.0876
     16 C9         -2.4862    0.0089    0.0143 C.3       1 <0>        -0.0310
     17 C10        -3.0012    0.1508   -1.4194 C.3       1 <0>        -0.1343
     18 C11        -4.3244    0.8720   -1.4088 C.2       1 <0>         0.5143
     19 O3         -4.8079    1.2366   -0.3579 O.2       1 <0>        -0.5376
     20 N4         -4.9705    1.1119   -2.5670 N.am      1 <0>        -0.7308
     21 C12        -6.2568    1.8130   -2.5567 C.3       1 <0>         0.1907
     22 C13        -6.7641    1.9527   -3.9688 C.2       1 <0>        -0.2053
     23 C14        -6.5022    3.0218   -4.8562 C.2       1 <0>        -0.2011
     24 C15        -7.1460    2.7424   -6.0037 C.2       1 <0>        -0.0393
     25 O4         -7.7803    1.5674   -5.8592 O.3       1 <0>        -0.1747
     26 C16        -7.5481    1.0815   -4.6289 C.2       1 <0>        -0.0147
     27 H3          1.0042    1.8801    0.0026 H         1 <0>         0.0876
     28 H4         -0.5455    1.8639   -0.8728 H         1 <0>         0.0816
     29 H5         -0.5286    1.8543    0.9071 H         1 <0>         0.0857
     30 H6          3.0718   -4.2516   -1.0628 H         1 <0>         0.0825
     31 H7          3.9286   -3.9910    0.4755 H         1 <0>         0.0985
     32 H8          2.2313   -4.5271    0.4818 H         1 <0>         0.0968
     33 H9         -3.2052   -0.5597    0.6040 H         1 <0>         0.0840
     34 H10        -2.3574    0.9981    0.4537 H         1 <0>         0.0828
     35 H11        -2.2822    0.7195   -2.0091 H         1 <0>         0.0918
     36 H12        -3.1301   -0.8383   -1.8588 H         1 <0>         0.0951
     37 H13        -4.5838    0.8203   -3.4075 H         1 <0>         0.4015
     38 H14        -6.9758    1.2443   -1.9669 H         1 <0>         0.0758
     39 H15        -6.1279    2.8021   -2.1173 H         1 <0>         0.0774
     40 H16        -5.9012    3.8955   -4.6517 H         1 <0>         0.1502
     41 H17        -7.1521    3.3585   -6.8907 H         1 <0>         0.2043
     42 H18        -7.9283    0.1504   -4.2354 H         1 <0>         0.2044
@<TRIPOS>BOND
     1    1    2 1
     2    1   27 1
     3    1   28 1
     4    1   29 1
     5    2    9 1
     6    2    3 2
     7    3    4 1
     8    3   16 1
     9    4    5 2
    10    4    6 am
    11    6    7 1
    12    6    8 1
    13    8   14 1
    14    8    9 2
    15    9   10 1
    16   10   11 2
    17   10   12 am
    18   12   13 1
    19   12   14 1
    20   14   15 1
    21   15   30 1
    22   15   31 1
    23   15   32 1
    24   16   17 1
    25   16   33 1
    26   16   34 1
    27   17   18 1
    28   17   35 1
    29   17   36 1
    30   18   19 2
    31   18   20 am
    32   20   21 1
    33   20   37 1
    34   21   22 1
    35   21   38 1
    36   21   39 1
    37   22   26 2
    38   22   23 1
    39   23   24 2
    40   23   40 1
    41   24   25 1
    42   24   41 1
    43   25   26 1
    44   26   42 1
