@<TRIPOS>MOLECULE
ZINC65742868
   62    66     0     0     0
SMALL
USER_CHARGES

@<TRIPOS>ATOM
      1 C1          0.1447    0.8362   -0.3519 C.ar      1 <0>        -0.1099
      2 C2          1.2110    1.7128   -0.2676 C.ar      1 <0>        -0.0854
      3 C3          2.4956    1.1994   -0.1146 C.ar      1 <0>        -0.0550
      4 C4          2.7163   -0.1543   -0.0409 C.ar      1 <0>        -0.0542
      5 C5          1.6472   -1.0299   -0.1320 C.ar      1 <0>        -0.1036
      6 C6          0.3650   -0.5289   -0.2868 C.ar      1 <0>        -0.0245
      7 Cl1        -0.9780   -1.6231   -0.4000 Cl        1 <0>        -0.0598
      8 C7          4.1051   -0.6816    0.1506 C.3       1 <0>        -0.0763
      9 C8          4.6440   -0.4380    1.5344 C.3       1 <0>        -0.0747
     10 C9          4.9207    1.0033    1.8696 C.ar      1 <0>        -0.0590
     11 C10         5.6745    1.1873    3.0355 C.ar      1 <0>        -0.1271
     12 C11         6.0154    2.4668    3.4416 C.ar      1 <0>         0.1138
     13 C12         5.6025    3.5488    2.6750 C.ar      1 <0>         0.0553
     14 N1          4.8911    3.3501    1.5916 N.ar      1 <0>        -0.4384
     15 C13         4.5292    2.1307    1.1743 C.ar      1 <0>         0.0941
     16 C14         3.6760    2.0883   -0.0331 C.2       1 <0>         0.0371
     17 C15         3.9786    2.8714   -1.0759 C.2       1 <0>        -0.1479
     18 C16         5.2509    3.6932   -1.0963 C.3       1 <0>        -0.0951
     19 C17         5.9433    3.4698   -2.4455 C.3       1 <0>        -0.0059
     20 N2          5.0051    3.7716   -3.5330 N.4       1 <0>        -0.5043
     21 C18         3.9093    2.7952   -3.5423 C.3       1 <0>        -0.0014
     22 C19         3.0640    2.9621   -2.2799 C.3       1 <0>        -0.1095
     23 O1          6.7425    2.6606    4.5731 O.3       1 <0>        -0.2863
     24 C20         7.0521    4.0114    4.9220 C.3       1 <0>         0.2116
     25 H1          7.4716    4.5234    4.0560 H         1 <0>         0.0613
     26 C21         8.0705    4.0229    6.0649 C.3       1 <0>         0.1098
     27 H2          8.9958    3.5520    5.7330 H         1 <0>         0.0685
     28 C22         8.3516    5.4722    6.4734 C.3       1 <0>         0.1195
     29 H3          8.8004    6.0065    5.6360 H         1 <0>         0.0781
     30 C23         7.0325    6.1462    6.8633 C.3       1 <0>         0.0639
     31 H4          7.2154    7.1938    7.1024 H         1 <0>         0.0691
     32 C24         6.0541    6.0526    5.6895 C.3       1 <0>        -0.0003
     33 H5          6.4606    6.5916    4.8337 H         1 <0>         0.0575
     34 O2          5.8607    4.6805    5.3403 O.3       1 <0>        -0.3429
     35 C25         4.7338    6.6615    6.0860 C.2       1 <0>         0.5052
     36 O3          4.6620    7.8530    6.3344 O.co2     1 <0>        -0.6822
     37 O4          3.7374    5.9626    6.1583 O.co2     1 <0>        -0.6577
     38 O5          6.4776    5.4861    8.0028 O.3       1 <0>        -0.5242
     39 O6          9.2469    5.4900    7.5869 O.3       1 <0>        -0.5401
     40 O7          7.5430    3.3045    7.1819 O.3       1 <0>        -0.5055
     41 H6         -0.8598    1.2166   -0.4641 H         1 <0>         0.1404
     42 H7          1.0494    2.7794   -0.3201 H         1 <0>         0.1391
     43 H8          1.8120   -2.0961   -0.0830 H         1 <0>         0.1404
     44 H9          4.1020   -1.7547   -0.0403 H         1 <0>         0.0863
     45 H10         4.7650   -0.2015   -0.5719 H         1 <0>         0.0745
     46 H11         3.9247   -0.8259    2.2557 H         1 <0>         0.0881
     47 H12         5.5713   -1.0001    1.6452 H         1 <0>         0.0922
     48 H13         5.9890    0.3332    3.6170 H         1 <0>         0.1466
     49 H14         5.8668    4.5532    2.9712 H         1 <0>         0.1678
     50 H15         5.0084    4.7493   -0.9777 H         1 <0>         0.1027
     51 H16         5.9084    3.3732   -0.2879 H         1 <0>         0.1200
     52 H17         6.8108    4.1254   -2.5216 H         1 <0>         0.1331
     53 H18         6.2652    2.4312   -2.5211 H         1 <0>         0.1273
     54 H19         4.6267    4.6976   -3.4008 H         1 <0>         0.4285
     55 H20         3.2864    2.9566   -4.4221 H         1 <0>         0.1334
     56 H21         4.3216    1.7866   -3.5692 H         1 <0>         0.1287
     57 H22         2.3149    2.1717   -2.2330 H         1 <0>         0.1198
     58 H23         2.5727    3.9349   -2.2961 H         1 <0>         0.1018
     59 H24         5.6393    5.8615    8.3053 H         1 <0>         0.3776
     60 H25         9.4689    6.3779    7.8990 H         1 <0>         0.3804
     61 H26         7.3377    2.3787    6.9926 H         1 <0>         0.3700
     62 H27         5.4931    3.7349   -4.4154 H         1 <0>         0.4279
@<TRIPOS>BOND
     1    1    6 ar
     2    1    2 ar
     3    1   41 1
     4    2    3 ar
     5    2   42 1
     6    3   16 1
     7    3    4 ar
     8    4    5 ar
     9    4    8 1
    10    5    6 ar
    11    5   43 1
    12    6    7 1
    13    8    9 1
    14    8   44 1
    15    8   45 1
    16    9   10 1
    17    9   46 1
    18    9   47 1
    19   10   15 ar
    20   10   11 ar
    21   11   12 ar
    22   11   48 1
    23   12   13 ar
    24   12   23 1
    25   13   14 ar
    26   13   49 1
    27   14   15 ar
    28   15   16 1
    29   16   17 2
    30   17   22 1
    31   17   18 1
    32   18   19 1
    33   18   50 1
    34   18   51 1
    35   19   20 1
    36   19   52 1
    37   19   53 1
    38   20   21 1
    39   20   54 1
    40   20   62 1
    41   21   22 1
    42   21   55 1
    43   21   56 1
    44   22   57 1
    45   22   58 1
    46   23   24 1
    47   24   25 1
    48   24   34 1
    49   24   26 1
    50   26   27 1
    51   26   28 1
    52   26   40 1
    53   28   29 1
    54   28   30 1
    55   28   39 1
    56   30   31 1
    57   30   32 1
    58   30   38 1
    59   32   33 1
    60   32   34 1
    61   32   35 1
    62   35   36 2
    63   35   37 1
    64   38   59 1
    65   39   60 1
    66   40   61 1
