@<TRIPOS>MOLECULE
ZINC56887398
   39    40     0     0     0
SMALL
USER_CHARGES

@<TRIPOS>ATOM
      1 C1         -2.2730    1.2842    2.1716 C.3       1 <0>         0.0354
      2 O1         -2.9453    0.6198    3.2434 O.3       1 <0>        -0.2966
      3 C2         -2.1833    0.2047    4.2843 C.ar      1 <0>         0.4109
      4 C3         -2.7638   -0.4565    5.3660 C.ar      1 <0>        -0.2998
      5 C4         -1.9487   -0.8625    6.4055 C.ar      1 <0>         0.2221
      6 N1         -0.6491   -0.6136    6.3447 N.ar      1 <0>        -0.5963
      7 C5         -0.1255    0.0168    5.3039 C.ar      1 <0>         0.6044
      8 N2         -0.8731    0.4170    4.2860 N.ar      1 <0>        -0.6186
      9 N3          1.2369    0.2587    5.2768 N.pl3     1 <0>        -0.4889
     10 N4          2.0443   -0.1619    6.3417 N.am      1 <0>        -0.5016
     11 C6          3.3711    0.0737    6.3154 C.2       1 <0>         0.5131
     12 O2          3.8661    0.6496    5.3698 O.2       1 <0>        -0.5163
     13 C7          4.2396   -0.3787    7.4609 C.3       1 <0>        -0.0908
     14 H1          3.6277   -0.9002    8.1969 H         1 <0>         0.1053
     15 C8          5.3232   -1.3233    6.9372 C.3       1 <0>        -0.1006
     16 C9          6.1822   -0.5913    5.9041 C.3       1 <0>        -0.1399
     17 C10         6.8392    0.6261    6.5576 C.3       1 <0>        -0.1063
     18 C11         5.7555    1.5707    7.0813 C.3       1 <0>        -0.1332
     19 C12         4.8966    0.8387    8.1144 C.3       1 <0>        -0.1174
     20 H2          5.5248    0.5115    8.9429 H         1 <0>         0.1298
     21 C13         3.8130    1.7834    8.6381 C.3       1 <0>         0.4458
     22 F1          2.9476    1.0784    9.4815 F         1 <0>        -0.1822
     23 F2          4.4102    2.8286    9.3509 F         1 <0>        -0.1783
     24 F3          3.0903    2.3069    7.5607 F         1 <0>        -0.1754
     25 H3         -1.5274    0.6160    1.7407 H         1 <0>         0.0633
     26 H4         -2.9969    1.5629    1.4059 H         1 <0>         0.1022
     27 H5         -1.7819    2.1804    2.5508 H         1 <0>         0.0634
     28 H6         -3.8266   -0.6468    5.3910 H         1 <0>         0.1539
     29 H7         -2.3667   -1.3768    7.2582 H         1 <0>         0.1796
     30 H8          1.6328    0.7193    4.5205 H         1 <0>         0.4470
     31 H9          1.6485   -0.6225    7.0980 H         1 <0>         0.4336
     32 H10         5.9514   -1.6505    7.7657 H         1 <0>         0.0838
     33 H11         4.8552   -2.1906    6.4716 H         1 <0>         0.0762
     34 H12         6.9542   -1.2643    5.5310 H         1 <0>         0.0662
     35 H13         5.5540   -0.2642    5.0755 H         1 <0>         0.0951
     36 H14         7.4674    0.2989    7.3861 H         1 <0>         0.0618
     37 H15         7.4511    1.1476    5.8216 H         1 <0>         0.0715
     38 H16         6.2236    2.4380    7.5469 H         1 <0>         0.0743
     39 H17         5.1274    1.8979    6.2528 H         1 <0>         0.1038
@<TRIPOS>BOND
     1    1    2 1
     2    1   25 1
     3    1   26 1
     4    1   27 1
     5    2    3 1
     6    3    8 ar
     7    3    4 ar
     8    4    5 ar
     9    4   28 1
    10    5    6 ar
    11    5   29 1
    12    6    7 ar
    13    7    8 ar
    14    7    9 1
    15    9   10 1
    16    9   30 1
    17   10   11 am
    18   10   31 1
    19   11   12 2
    20   11   13 1
    21   13   14 1
    22   13   19 1
    23   13   15 1
    24   15   16 1
    25   15   32 1
    26   15   33 1
    27   16   17 1
    28   16   34 1
    29   16   35 1
    30   17   18 1
    31   17   36 1
    32   17   37 1
    33   18   19 1
    34   18   38 1
    35   18   39 1
    36   19   20 1
    37   19   21 1
    38   21   22 1
    39   21   23 1
    40   21   24 1
