@<TRIPOS>MOLECULE
ZINC09166817
   61    66     0     0     0
SMALL
USER_CHARGES
(4aR,5S)-3'-cyclohexyl-6'-hydroxy-spiro[1,2,3,4,4a,6-hexahydroquinolino[2,3-f]quinolizine-5,5'-pyrimidine]-2',4'-dione
@<TRIPOS>ATOM
      1 C1         -1.1958    3.4822    0.0410 C.ar      1 <0>        -0.1126
      2 C2          0.0140    4.1725    0.0390 C.ar      1 <0>        -0.0279
      3 C3          1.2016    3.5078    0.0204 C.ar      1 <0>        -0.1540
      4 C4          1.2148    2.1022    0.0017 C.ar      1 <0>         0.1646
      5 C5         -0.0170    1.4032    0.0098 C.ar      1 <0>        -0.1055
      6 C6         -1.2226    2.1204    0.0309 C.ar      1 <0>        -0.0483
      7 C7          0.0021   -0.0041    0.0020 C.ar      1 <0>         0.0772
      8 C8          1.2090   -0.6446   -0.0181 C.ar      1 <0>        -0.1629
      9 C9          2.3948    0.0961   -0.0381 C.ar      1 <0>         0.4677
     10 N1          3.6457   -0.4987   -0.0799 N.pl3     1 <0>        -0.4683
     11 C10         4.6300    0.2963    0.6673 C.3       1 <0>         0.0418
     12 C11         6.0333   -0.2582    0.4118 C.3       1 <0>        -0.1230
     13 C12         6.0862   -1.7231    0.8544 C.3       1 <0>        -0.1243
     14 C13         5.0205   -2.5194    0.0958 C.3       1 <0>        -0.1311
     15 C14         3.6463   -1.8950    0.3529 C.3       1 <0>         0.1135
     16 H1          3.4162   -1.9465    1.4171 H         1 <0>         0.1195
     17 C15         2.5852   -2.6683   -0.4386 C.3       1 <0>        -0.0794
     18 C16         1.2080   -2.1523   -0.0134 C.3       1 <0>        -0.0568
     19 C17         2.7818   -2.4315   -1.9082 C.2       1 <0>         0.4565
     20 N2          3.0078   -3.3990   -2.7444 N.2       1 <0>        -0.5900
     21 C18         3.0833   -4.6817   -2.3605 C.2       1 <0>         0.6781
     22 O1          3.2952   -5.5396   -3.1965 O.2       1 <0>        -0.4494
     23 N3          2.9305   -5.0425   -1.0765 N.am      1 <0>        -0.5729
     24 C19         2.6925   -4.1331   -0.1184 C.2       1 <0>         0.5342
     25 O2          2.5618   -4.5008    1.0295 O.2       1 <0>        -0.4616
     26 C20         3.0253   -6.4586   -0.7134 C.3       1 <0>         0.1342
     27 C21         4.4078   -6.9914   -1.0951 C.3       1 <0>        -0.1341
     28 C22         4.5069   -8.4704   -0.7159 C.3       1 <0>        -0.1139
     29 C23         3.4313   -9.2616   -1.4628 C.3       1 <0>        -0.1250
     30 C24         2.0488   -8.7287   -1.0811 C.3       1 <0>        -0.1139
     31 C25         1.9497   -7.2498   -1.4603 C.3       1 <0>        -0.1347
     32 O3          2.7221   -1.1738   -2.3746 O.3       1 <0>        -0.4474
     33 H2         -2.1243    4.0337    0.0550 H         1 <0>         0.1522
     34 H3          0.0096    5.2524    0.0528 H         1 <0>         0.1532
     35 H4          2.1307    4.0585    0.0195 H         1 <0>         0.1509
     36 H5         -2.1666    1.5958    0.0350 H         1 <0>         0.1590
     37 H6         -0.9196   -0.5670    0.0122 H         1 <0>         0.1798
     38 H7          4.5840    1.3344    0.3380 H         1 <0>         0.0915
     39 H8          4.4066    0.2429    1.7329 H         1 <0>         0.0894
     40 H9          6.2633   -0.1907   -0.6515 H         1 <0>         0.0867
     41 H10         6.7621    0.3201    0.9798 H         1 <0>         0.0999
     42 H11         7.0720   -2.1341    0.6365 H         1 <0>         0.0922
     43 H12         5.8932   -1.7873    1.9252 H         1 <0>         0.0783
     44 H13         5.0207   -3.5534    0.4408 H         1 <0>         0.0945
     45 H14         5.2393   -2.4909   -0.9716 H         1 <0>         0.0828
     46 H15         0.9797   -2.5120    0.9899 H         1 <0>         0.1336
     47 H16         0.4533   -2.5170   -0.7102 H         1 <0>         0.1185
     48 H17         2.8773   -6.5689    0.3609 H         1 <0>         0.1150
     49 H18         4.5559   -6.8811   -2.1693 H         1 <0>         0.0889
     50 H19         5.1741   -6.4278   -0.5629 H         1 <0>         0.0616
     51 H20         4.3589   -8.5807    0.3584 H         1 <0>         0.0655
     52 H21         5.4918   -8.8500   -0.9878 H         1 <0>         0.0723
     53 H22         3.5019  -10.3152   -1.1927 H         1 <0>         0.0694
     54 H23         3.5793   -9.1512   -2.5371 H         1 <0>         0.0677
     55 H24         1.9008   -8.8391   -0.0069 H         1 <0>         0.0656
     56 H25         1.2825   -9.2924   -1.6133 H         1 <0>         0.0725
     57 H26         0.9648   -6.8702   -1.1884 H         1 <0>         0.0626
     58 H27         2.0978   -7.1394   -2.5346 H         1 <0>         0.0890
     59 H28         2.8524   -1.0514   -3.3250 H         1 <0>         0.4330
     60 N4          2.4334    1.4641   -0.0237 N.ar      1 <0>        -0.5396
     61 H29         3.3192    1.9833   -0.0314 H         1 <0>         0.4635
@<TRIPOS>BOND
     1    1    6 ar
     2    1    2 ar
     3    1   33 1
     4    2    3 ar
     5    2   34 1
     6    3    4 ar
     7    3   35 1
     8    4    5 ar
     9    4   60 ar
    10    5    6 ar
    11    5    7 ar
    12    6   36 1
    13    7    8 ar
    14    7   37 1
    15    8   18 1
    16    8    9 ar
    17    9   10 1
    18    9   60 ar
    19   10   15 1
    20   10   11 1
    21   11   12 1
    22   11   38 1
    23   11   39 1
    24   12   13 1
    25   12   40 1
    26   12   41 1
    27   13   14 1
    28   13   42 1
    29   13   43 1
    30   14   15 1
    31   14   44 1
    32   14   45 1
    33   15   16 1
    34   15   17 1
    35   17   24 1
    36   17   18 1
    37   17   19 1
    38   18   46 1
    39   18   47 1
    40   19   20 2
    41   19   32 1
    42   20   21 1
    43   21   22 2
    44   21   23 am
    45   23   24 am
    46   23   26 1
    47   24   25 2
    48   26   31 1
    49   26   27 1
    50   26   48 1
    51   27   28 1
    52   27   49 1
    53   27   50 1
    54   28   29 1
    55   28   51 1
    56   28   52 1
    57   29   30 1
    58   29   53 1
    59   29   54 1
    60   30   31 1
    61   30   55 1
    62   30   56 1
    63   31   57 1
    64   31   58 1
    65   32   59 1
    66   60   61 1
