@<TRIPOS>MOLECULE
ZINC13640085
   64    67     0     0     0
SMALL
USER_CHARGES
ethyl (4S,5R)-4-(3-ethoxy-4-hydroxy-phenyl)-6-oxo-2-[4-(2-pyridyl)piperazin-1-yl]-4,5-dihydro-3H-pyrimidine-5-carboxylate
@<TRIPOS>ATOM
      1 C1          5.9675    2.2736   -0.0459 C.3       1 <0>        -0.1543
      2 C2          4.7633    1.3298   -0.0386 C.3       1 <0>         0.0505
      3 O1          3.5574    2.0963   -0.0220 O.3       1 <0>        -0.3013
      4 C3          2.3864    1.4049   -0.0136 C.ar      1 <0>         0.1162
      5 C4          2.3981    0.0193   -0.0212 C.ar      1 <0>        -0.1739
      6 C5          1.2069   -0.6820   -0.0131 C.ar      1 <0>        -0.0848
      7 C6          0.0021   -0.0041    0.0020 C.ar      1 <0>        -0.1429
      8 C7         -0.0167    1.3782    0.0096 C.ar      1 <0>        -0.1039
      9 C8          1.1738    2.0873    0.0021 C.ar      1 <0>         0.0880
     10 O2          1.1571    3.4471    0.0091 O.3       1 <0>        -0.4818
     11 C9          1.2215   -2.1889   -0.0214 C.3       1 <0>         0.2190
     12 H1          2.1972   -2.5510    0.3028 H         1 <0>         0.1309
     13 C10         0.9158   -2.7052   -1.4342 C.3       1 <0>        -0.1702
     14 H2          1.5352   -2.1759   -2.1583 H         1 <0>         0.1504
     15 C11        -0.5395   -2.4580   -1.7387 C.2       1 <0>         0.5384
     16 O3         -0.8894   -2.3097   -2.8932 O.2       1 <0>        -0.4605
     17 N1         -1.4457   -2.3994   -0.7729 N.2       1 <0>        -0.6739
     18 C12        -1.1292   -2.5258    0.5056 C.2       1 <0>         0.7034
     19 N2          0.1737   -2.7039    0.8764 N.pl3     1 <0>        -0.7368
     20 N3         -2.1051   -2.4778    1.4550 N.pl3     1 <0>        -0.5918
     21 C13        -1.7780   -2.6215    2.8817 C.3       1 <0>         0.1112
     22 C14        -2.4193   -1.4507    3.6435 C.3       1 <0>         0.0399
     23 N4         -3.8553   -1.4023    3.3378 N.pl3     1 <0>        -0.4758
     24 C15        -4.0879   -1.1352    1.9122 C.3       1 <0>         0.0019
     25 C16        -3.5144   -2.2870    1.0799 C.3       1 <0>         0.1325
     26 C17        -4.5024   -0.4633    4.1326 C.ar      1 <0>         0.3674
     27 C18        -4.4024   -0.5463    5.5179 C.ar      1 <0>        -0.1510
     28 C19        -5.0514    0.3945    6.2966 C.ar      1 <0>         0.0372
     29 C20        -5.7815    1.3908    5.6616 C.ar      1 <0>        -0.1461
     30 C21        -5.8379    1.4131    4.2827 C.ar      1 <0>         0.1487
     31 C22         1.2029   -4.1829   -1.5049 C.2       1 <0>         0.4828
     32 O4          1.6101   -4.7666   -0.5285 O.2       1 <0>        -0.5004
     33 O5          1.0063   -4.8506   -2.6526 O.3       1 <0>        -0.3420
     34 C23         1.3038   -6.2718   -2.6477 C.3       1 <0>         0.0635
     35 C24         1.0206   -6.8569   -4.0327 C.3       1 <0>        -0.1556
     36 H3          5.9274    2.9070   -0.9321 H         1 <0>         0.0699
     37 H4          5.9457    2.8974    0.8477 H         1 <0>         0.0677
     38 H5          6.8873    1.6890   -0.0585 H         1 <0>         0.0831
     39 H6          4.8035    0.6965    0.8477 H         1 <0>         0.0637
     40 H7          4.7851    0.7061   -0.9322 H         1 <0>         0.0657
     41 H8          3.3379   -0.5127   -0.0330 H         1 <0>         0.1397
     42 H9         -0.9265   -0.5556    0.0076 H         1 <0>         0.1368
     43 H10        -0.9592    1.9054    0.0170 H         1 <0>         0.1343
     44 H11         1.1605    3.8359    0.8944 H         1 <0>         0.3888
     45 H12         0.4013   -3.1553    1.7043 H         1 <0>         0.4160
     46 H13        -2.1742   -3.5659    3.2549 H         1 <0>         0.1025
     47 H14        -0.6963   -2.5972    3.0137 H         1 <0>         0.1076
     48 H15        -1.9508   -0.5148    3.3389 H         1 <0>         0.0793
     49 H16        -2.2801   -1.5957    4.7148 H         1 <0>         0.1206
     50 H17        -3.5963   -0.2037    1.6317 H         1 <0>         0.0796
     51 H18        -5.1589   -1.0512    1.7275 H         1 <0>         0.1107
     52 H19        -3.5812   -2.0415    0.0200 H         1 <0>         0.1361
     53 H20        -4.0742   -3.1998    1.2832 H         1 <0>         0.0950
     54 H21        -3.8256   -1.3345    5.9788 H         1 <0>         0.1868
     55 H22        -4.9920    0.3552    7.3742 H         1 <0>         0.1796
     56 H23        -6.2995    2.1408    6.2409 H         1 <0>         0.1879
     57 H24        -6.4045    2.1860    3.7848 H         1 <0>         0.1983
     58 H25         2.3540   -6.4223   -2.3975 H         1 <0>         0.0745
     59 H26         0.6787   -6.7713   -1.9075 H         1 <0>         0.0705
     60 H27         1.2439   -7.9238   -4.0290 H         1 <0>         0.0848
     61 H28        -0.0295   -6.7064   -4.2830 H         1 <0>         0.0690
     62 H29         1.6457   -6.3575   -4.7729 H         1 <0>         0.0705
     63 N5         -5.2081    0.5088    3.4858 N.ar      1 <0>        -0.5236
     64 H30        -5.2603    0.5548    2.4614 H         1 <0>         0.4695
@<TRIPOS>BOND
     1    1    2 1
     2    1   36 1
     3    1   37 1
     4    1   38 1
     5    2    3 1
     6    2   39 1
     7    2   40 1
     8    3    4 1
     9    4    9 ar
    10    4    5 ar
    11    5    6 ar
    12    5   41 1
    13    6    7 ar
    14    6   11 1
    15    7    8 ar
    16    7   42 1
    17    8    9 ar
    18    8   43 1
    19    9   10 1
    20   10   44 1
    21   11   12 1
    22   11   19 1
    23   11   13 1
    24   13   14 1
    25   13   15 1
    26   13   31 1
    27   15   16 2
    28   15   17 1
    29   17   18 2
    30   18   19 1
    31   18   20 1
    32   19   45 1
    33   20   25 1
    34   20   21 1
    35   21   22 1
    36   21   46 1
    37   21   47 1
    38   22   23 1
    39   22   48 1
    40   22   49 1
    41   23   24 1
    42   23   26 1
    43   24   25 1
    44   24   50 1
    45   24   51 1
    46   25   52 1
    47   25   53 1
    48   26   27 ar
    49   26   63 ar
    50   27   28 ar
    51   27   54 1
    52   28   29 ar
    53   28   55 1
    54   29   30 ar
    55   29   56 1
    56   30   57 1
    57   30   63 ar
    58   31   32 2
    59   31   33 1
    60   33   34 1
    61   34   35 1
    62   34   58 1
    63   34   59 1
    64   35   60 1
    65   35   61 1
    66   35   62 1
    67   63   64 1
