@<TRIPOS>MOLECULE
ZINC45533318
   60    61     0     0     0
SMALL
USER_CHARGES

@<TRIPOS>ATOM
      1 C1         -0.3478    1.5711    0.4375 C.3       1 <0>        -0.1558
      2 C2         -0.0737    0.0695    0.5421 C.3       1 <0>        -0.1399
      3 C3         -1.3930   -0.6982    0.4371 C.3       1 <0>        -0.1033
      4 C4         -1.9974   -0.4859   -0.9523 C.3       1 <0>        -0.1599
      5 C5         -3.3276   -1.2357   -1.0498 C.3       1 <0>        -0.1679
      6 C6         -1.1340   -2.1899    0.6581 C.3       1 <0>         0.0191
      7 H1         -2.0344   -2.7547    0.4165 H         1 <0>         0.1460
      8 C7         -0.7581   -2.4309    2.1215 C.3       1 <0>         0.1157
      9 N1         -0.7346   -3.8711    2.3888 N.am      1 <0>        -0.7593
     10 C8         -0.2851   -4.3293    3.5739 C.2       1 <0>         0.7184
     11 O1          0.1010   -3.5473    4.4212 O.2       1 <0>        -0.5669
     12 N2         -0.2635   -5.6542    3.8199 N.am      1 <0>        -0.5855
     13 N3         -0.6972   -6.5328    2.8680 N.3       1 <0>        -0.4424
     14 C9         -0.5876   -7.9189    3.3419 C.3       1 <0>         0.1053
     15 C10         0.8595   -8.1816    3.7565 C.3       1 <0>        -0.1309
     16 C11         1.2049   -9.6871    3.5833 C.3       1 <0>        -0.5649
     17 S1          0.3187  -10.0257    1.9989 S.o2      1 <0>         2.3748
     18 O2          1.1185   -9.5811    0.9117 O.2       1 <0>        -0.9228
     19 O3         -0.1697  -11.3601    2.0125 O.2       1 <0>        -0.9250
     20 C12        -1.0890   -8.8618    2.2307 C.3       1 <0>        -0.5771
     21 C13        -1.4843   -8.0879    4.5700 C.3       1 <0>        -0.1921
     22 N4         -0.0328   -2.6294   -0.2091 N.4       1 <0>        -0.3913
     23 C14         0.2847   -4.0571    0.0501 C.3       1 <0>        -0.0099
     24 C15         1.0009   -4.5026   -1.2496 C.3       1 <0>        -0.1451
     25 C16         0.2225   -3.7457   -2.3501 C.3       1 <0>        -0.1469
     26 C17        -0.4422   -2.5587   -1.6286 C.3       1 <0>        -0.0218
     27 H2          0.5777    2.1219    0.6052 H         1 <0>         0.0672
     28 H3         -0.7329    1.8018   -0.5558 H         1 <0>         0.0636
     29 H4         -1.0833    1.8594    1.1884 H         1 <0>         0.0658
     30 H5          0.5898   -0.2360   -0.2670 H         1 <0>         0.0586
     31 H6          0.3979   -0.1479    1.5004 H         1 <0>         0.0806
     32 H7         -2.0867   -0.3338    1.1947 H         1 <0>         0.1224
     33 H8         -2.1674    0.5782   -1.1159 H         1 <0>         0.0937
     34 H9         -1.3105   -0.8647   -1.7091 H         1 <0>         0.0811
     35 H10        -3.1701   -2.2875   -0.8113 H         1 <0>         0.0494
     36 H11        -4.0394   -0.8060   -0.3450 H         1 <0>         0.0702
     37 H12        -3.7209   -1.1477   -2.0625 H         1 <0>         0.0717
     38 H13         0.2276   -2.0088    2.3177 H         1 <0>         0.0979
     39 H14        -1.4933   -1.9531    2.7690 H         1 <0>         0.1118
     40 H15        -1.0426   -4.4949    1.7129 H         1 <0>         0.4007
     41 H16         0.0600   -5.9840    4.6728 H         1 <0>         0.4231
     42 H17        -1.6421   -6.3212    2.5844 H         1 <0>         0.3379
     43 H18         1.5268   -7.5846    3.1349 H         1 <0>         0.1057
     44 H19         0.9924   -7.8989    4.8008 H         1 <0>         0.1031
     45 H20         2.2791   -9.8387    3.4779 H         1 <0>         0.1494
     46 H21         0.8001  -10.2842    4.4004 H         1 <0>         0.1436
     47 H22        -1.9816   -9.3972    2.5543 H         1 <0>         0.1511
     48 H23        -1.2838   -8.3061    1.3135 H         1 <0>         0.1503
     49 H24        -2.5188   -7.8815    4.2957 H         1 <0>         0.0728
     50 H25        -1.4037   -9.1097    4.9408 H         1 <0>         0.0837
     51 H26        -1.1691   -7.3930    5.3484 H         1 <0>         0.0696
     52 H27         0.9497   -4.1536    0.9083 H         1 <0>         0.1425
     53 H28        -0.6283   -4.6327    0.2029 H         1 <0>         0.1284
     54 H29         2.0471   -4.1971   -1.2376 H         1 <0>         0.0991
     55 H30         0.9143   -5.5804   -1.3877 H         1 <0>         0.1212
     56 H31         0.9070   -3.3862   -3.1184 H         1 <0>         0.1060
     57 H32        -0.5356   -4.3932   -2.7907 H         1 <0>         0.1046
     58 H33        -1.5266   -2.6368   -1.7067 H         1 <0>         0.1379
     59 H34        -0.1023   -1.6203   -2.0668 H         1 <0>         0.1394
     60 H35         0.7832   -2.0567   -0.0534 H         1 <0>         0.4252
@<TRIPOS>BOND
     1    1    2 1
     2    1   27 1
     3    1   28 1
     4    1   29 1
     5    2    3 1
     6    2   30 1
     7    2   31 1
     8    3    4 1
     9    3    6 1
    10    3   32 1
    11    4    5 1
    12    4   33 1
    13    4   34 1
    14    5   35 1
    15    5   36 1
    16    5   37 1
    17    6    7 1
    18    6    8 1
    19    6   22 1
    20    8    9 1
    21    8   38 1
    22    8   39 1
    23    9   10 am
    24    9   40 1
    25   10   11 2
    26   10   12 am
    27   12   13 1
    28   12   41 1
    29   13   14 1
    30   13   42 1
    31   14   20 1
    32   14   15 1
    33   14   21 1
    34   15   16 1
    35   15   43 1
    36   15   44 1
    37   16   17 1
    38   16   45 1
    39   16   46 1
    40   17   18 2
    41   17   19 2
    42   17   20 1
    43   20   47 1
    44   20   48 1
    45   21   49 1
    46   21   50 1
    47   21   51 1
    48   22   26 1
    49   22   23 1
    50   22   60 1
    51   23   24 1
    52   23   52 1
    53   23   53 1
    54   24   25 1
    55   24   54 1
    56   24   55 1
    57   25   26 1
    58   25   56 1
    59   25   57 1
    60   26   58 1
    61   26   59 1
