@<TRIPOS>MOLECULE
ZINC13022584
   43    45     0     0     0
SMALL
USER_CHARGES
2-[2-[[5-chloro-2-(1,2,4-triazol-1-yl)phenyl]amino]-2-oxo-ethyl]sulfanyl-4,6-dimethyl-pyridine-3-carboxylic acid
@<TRIPOS>ATOM
      1 C1         -1.2806    2.0314   -2.5093 C.3       1 <0>        -0.1138
      2 C2         -1.9078    2.3624   -1.1796 C.ar      1 <0>        -0.0160
      3 C3         -3.1126    3.0391   -1.1130 C.ar      1 <0>        -0.1807
      4 C4         -3.6617    3.3344    0.1224 C.ar      1 <0>         0.1189
      5 N1         -3.0607    2.9785    1.2405 N.ar      1 <0>        -0.4991
      6 C5         -1.9085    2.3247    1.2357 C.ar      1 <0>         0.1095
      7 C6         -1.2878    1.9884    0.0187 C.ar      1 <0>        -0.1163
      8 C7         -0.0069    1.2622    0.0056 C.2       1 <0>         0.5006
      9 O1          0.0025    0.0471   -0.0117 O.co2     1 <0>        -0.6168
     10 S1         -1.1495    1.8744    2.7608 S.3       1 <0>         0.0518
     11 C8         -2.3612    2.5464    3.9253 C.3       1 <0>        -0.1532
     12 C9         -1.9083    2.2713    5.3361 C.2       1 <0>         0.5344
     13 O2         -0.8686    1.6790    5.5346 O.2       1 <0>        -0.4972
     14 N2         -2.6586    2.6832    6.3772 N.am      1 <0>        -0.6582
     15 C10        -2.2878    2.3457    7.6840 C.ar      1 <0>         0.1800
     16 C11        -0.9460    2.2708    8.0290 C.ar      1 <0>        -0.0968
     17 C12        -0.5824    1.9418    9.3219 C.ar      1 <0>        -0.0147
     18 C13        -1.5539    1.6764   10.2717 C.ar      1 <0>        -0.1040
     19 C14        -2.8920    1.7438    9.9344 C.ar      1 <0>        -0.1008
     20 C15        -3.2656    2.0782    8.6411 C.ar      1 <0>         0.1161
     21 N3         -4.6238    2.1466    8.2969 N.pl3     1 <0>        -0.3241
     22 C16        -5.6752    2.0079    9.1272 C.2       1 <0>         0.2639
     23 N4         -6.7693    2.1416    8.4215 N.2       1 <0>        -0.5343
     24 C17        -6.4596    2.3556    7.1434 C.2       1 <0>         0.2166
     25 N5         -5.1581    2.3673    7.0169 N.2       1 <0>        -0.3240
     26 Cl1         1.0969    1.8545    9.7532 Cl        1 <0>        -0.0506
     27 C18        -4.9716    4.0763    0.1909 C.3       1 <0>        -0.0925
     28 H1         -1.6363    1.0578   -2.8466 H         1 <0>         0.0743
     29 H2         -1.5558    2.7918   -3.2402 H         1 <0>         0.0661
     30 H3         -0.1961    2.0051   -2.4031 H         1 <0>         0.0815
     31 H4         -3.6188    3.3387   -2.0188 H         1 <0>         0.1298
     32 H5         -2.4508    3.6224    3.7759 H         1 <0>         0.1209
     33 H6         -3.3288    2.0742    3.7557 H         1 <0>         0.1226
     34 H7         -3.4555    3.2136    6.2208 H         1 <0>         0.4235
     35 H8         -0.1859    2.4734    7.2891 H         1 <0>         0.1652
     36 H9         -1.2650    1.4162   11.2792 H         1 <0>         0.1482
     37 H10        -3.6473    1.5364   10.6779 H         1 <0>         0.1459
     38 H11        -5.6244    1.8216   10.1898 H         1 <0>         0.2242
     39 H12        -7.1690    2.4973    6.3414 H         1 <0>         0.2257
     40 H13        -4.7805    5.1491    0.2194 H         1 <0>         0.0716
     41 H14        -5.5710    3.8373   -0.6876 H         1 <0>         0.0701
     42 H15        -5.5108    3.7793    1.0904 H         1 <0>         0.0705
     43 O3          1.1550    1.9452    0.0072 O.co2     1 <0>        -0.7389
@<TRIPOS>BOND
     1    1    2 1
     2    1   28 1
     3    1   29 1
     4    1   30 1
     5    2    7 ar
     6    2    3 ar
     7    3    4 ar
     8    3   31 1
     9    4    5 ar
    10    4   27 1
    11    5    6 ar
    12    6    7 ar
    13    6   10 1
    14    7    8 1
    15    8    9 2
    16    8   43 1
    17   10   11 1
    18   11   12 1
    19   11   32 1
    20   11   33 1
    21   12   13 2
    22   12   14 am
    23   14   15 1
    24   14   34 1
    25   15   20 ar
    26   15   16 ar
    27   16   17 ar
    28   16   35 1
    29   17   18 ar
    30   17   26 1
    31   18   19 ar
    32   18   36 1
    33   19   20 ar
    34   19   37 1
    35   20   21 1
    36   21   25 1
    37   21   22 1
    38   22   23 2
    39   22   38 1
    40   23   24 1
    41   24   25 2
    42   24   39 1
    43   27   40 1
    44   27   41 1
    45   27   42 1
