@<TRIPOS>MOLECULE
ZINC48837145
   45    46     0     0     0
SMALL
USER_CHARGES

@<TRIPOS>ATOM
      1 C1         -0.0215    1.5269    0.0112 C.3       1 <0>        -0.1552
      2 C2         -0.0003   -0.0029    0.0024 C.3       1 <0>        -0.0892
      3 C3         -1.4355   -0.5330    0.0137 C.3       1 <0>        -0.1084
      4 C4         -2.1512   -0.0401    1.2729 C.3       1 <0>        -0.1087
      5 C5         -1.4106   -0.5470    2.5120 C.3       1 <0>         0.1280
      6 C6          0.0246   -0.0170    2.5007 C.3       1 <0>        -0.1179
      7 C7          0.7404   -0.5098    1.2414 C.3       1 <0>        -0.1055
      8 C8         -2.1156   -0.0616    3.7523 C.2       1 <0>         0.4999
      9 O1         -2.5599   -0.8647    4.5548 O.co2     1 <0>        -0.6837
     10 O2         -2.2417    1.1344    3.9532 O.co2     1 <0>        -0.6898
     11 N1         -1.3902   -2.0119    2.5036 N.am      1 <0>        -0.7105
     12 C9         -0.7873   -2.6832    3.5047 C.2       1 <0>         0.7183
     13 O3         -0.1818   -2.0753    4.3661 O.2       1 <0>        -0.5425
     14 N2         -0.8555   -4.0284    3.5509 N.am      1 <0>        -0.6313
     15 C10        -0.3043   -4.7671    4.6951 C.3       1 <0>         0.1237
     16 C11        -1.3924   -5.6861    5.2592 C.3       1 <0>        -0.1341
     17 C12        -1.9342   -6.5763    4.1385 C.3       1 <0>        -0.1348
     18 C13        -2.5575   -5.7030    3.0472 C.3       1 <0>         0.0026
     19 H1         -3.3567   -5.0990    3.4768 H         1 <0>         0.1498
     20 C14        -1.4880   -4.7838    2.4609 C.3       1 <0>         0.1006
     21 N3         -3.1059   -6.5596    1.9873 N.4       1 <0>        -0.6315
     22 H2          1.0010    1.9045    0.0031 H         1 <0>         0.0514
     23 H3         -0.5492    1.8880   -0.8716 H         1 <0>         0.0498
     24 H4         -0.5314    1.8780    0.9082 H         1 <0>         0.0709
     25 H5          0.5097   -0.3541   -0.8947 H         1 <0>         0.0604
     26 H6         -1.9631   -0.1719   -0.8691 H         1 <0>         0.0593
     27 H7         -1.4203   -1.6229    0.0074 H         1 <0>         0.0462
     28 H8         -2.1664    1.0497    1.2792 H         1 <0>         0.0891
     29 H9         -3.1737   -0.4178    1.2810 H         1 <0>         0.0551
     30 H10         0.0095    1.0729    2.5069 H         1 <0>         0.0748
     31 H11         0.5523   -0.3781    3.3834 H         1 <0>         0.0793
     32 H12         0.7556   -1.5997    1.2352 H         1 <0>         0.0485
     33 H13         1.7629   -0.1322    1.2334 H         1 <0>         0.0547
     34 H14        -1.8107   -2.4986    1.7775 H         1 <0>         0.3717
     35 H15         0.5461   -5.3655    4.3683 H         1 <0>         0.0664
     36 H16         0.0151   -4.0640    5.4644 H         1 <0>         0.1083
     37 H17        -0.9696   -6.3096    6.0469 H         1 <0>         0.0951
     38 H18        -2.2026   -5.0823    5.6680 H         1 <0>         0.0837
     39 H19        -1.1188   -7.1617    3.7135 H         1 <0>         0.0869
     40 H20        -2.6913   -7.2483    4.5424 H         1 <0>         0.0876
     41 H21        -1.9493   -4.0917    1.7564 H         1 <0>         0.0952
     42 H22        -0.7362   -5.3836    1.9478 H         1 <0>         0.0823
     43 H23        -3.8120   -7.1661    2.3766 H         1 <0>         0.4364
     44 H24        -3.5167   -5.9834    1.2680 H         1 <0>         0.4364
     45 H25        -2.3655   -7.1177    1.5891 H         1 <0>         0.4311
@<TRIPOS>BOND
     1    1    2 1
     2    1   22 1
     3    1   23 1
     4    1   24 1
     5    2    7 1
     6    2    3 1
     7    2   25 1
     8    3    4 1
     9    3   26 1
    10    3   27 1
    11    4    5 1
    12    4   28 1
    13    4   29 1
    14    5    6 1
    15    5    8 1
    16    5   11 1
    17    6    7 1
    18    6   30 1
    19    6   31 1
    20    7   32 1
    21    7   33 1
    22    8    9 2
    23    8   10 1
    24   11   12 am
    25   11   34 1
    26   12   13 2
    27   12   14 am
    28   14   20 1
    29   14   15 1
    30   15   16 1
    31   15   35 1
    32   15   36 1
    33   16   17 1
    34   16   37 1
    35   16   38 1
    36   17   18 1
    37   17   39 1
    38   17   40 1
    39   18   19 1
    40   18   20 1
    41   18   21 1
    42   20   41 1
    43   20   42 1
    44   21   43 1
    45   21   44 1
    46   21   45 1
