@<TRIPOS>MOLECULE
ZINC44337286
   53    54     0     0     0
SMALL
USER_CHARGES

@<TRIPOS>ATOM
      1 C1         -0.6124    2.2575    0.8217 C.3       1 <0>        -0.1421
      2 C2         -0.5197    0.8678    0.1884 C.3       1 <0>        -0.1010
      3 C3         -1.8926    0.2488    0.1323 C.ar      1 <0>        -0.0284
      4 C4         -2.2390   -0.7441    1.0306 C.ar      1 <0>        -0.0994
      5 C5         -3.4962   -1.3133    0.9818 C.ar      1 <0>        -0.0714
      6 C6         -4.4131   -0.8878    0.0294 C.ar      1 <0>         0.1634
      7 C7         -4.0622    0.1091   -0.8711 C.ar      1 <0>        -0.0883
      8 C8         -2.8050    0.6785   -0.8134 C.ar      1 <0>        -0.0295
      9 N1         -2.4321    1.7456   -1.7690 N.pl3     1 <0>         0.0374
     10 O1         -3.2591    2.1918   -2.5297 O.2       1 <0>        -0.1678
     11 O2         -1.3006    2.1710   -1.7888 O.3       1 <0>        -0.1460
     12 N2         -5.6878   -1.4630   -0.0230 N.am      1 <0>        -0.6815
     13 C9         -6.2641   -1.9280    1.1031 C.2       1 <0>         0.7128
     14 O3         -5.6389   -1.9395    2.1459 O.2       1 <0>        -0.5662
     15 N3         -7.5334   -2.3802    1.0734 N.am      1 <0>        -0.6233
     16 C10        -8.2562   -2.4966   -0.2009 C.3       1 <0>         0.0929
     17 C11        -8.7615   -3.9372   -0.3479 C.3       1 <0>         0.0542
     18 N4         -9.4473   -4.3233    0.8933 N.am      1 <0>        -0.5832
     19 C12        -8.7244   -4.2069    2.1675 C.3       1 <0>         0.0929
     20 C13        -8.2172   -2.7716    2.3139 C.3       1 <0>         0.1158
     21 C14       -10.7165   -4.7756    0.8635 C.2       1 <0>         0.5095
     22 O4        -11.3130   -4.9781    1.9007 O.2       1 <0>        -0.5140
     23 C15       -11.3895   -5.0277   -0.4469 C.2       1 <0>         0.5118
     24 O5        -10.7442   -5.0059   -1.4744 O.2       1 <0>        -0.5118
     25 N5        -12.7129   -5.2792   -0.4875 N.am      1 <0>        -0.6909
     26 C16       -13.3726   -5.5262   -1.7720 C.3       1 <0>         0.1332
     27 C17       -13.2293   -7.0036   -2.1431 C.3       1 <0>        -0.1666
     28 C18       -14.8563   -5.1701   -1.6603 C.3       1 <0>        -0.1637
     29 H1          0.3805    2.7053    0.8623 H         1 <0>         0.0700
     30 H2         -1.2705    2.8867    0.2224 H         1 <0>         0.0554
     31 H3         -1.0133    2.1706    1.8315 H         1 <0>         0.0521
     32 H4         -0.1188    0.9547   -0.8214 H         1 <0>         0.1051
     33 H5          0.1383    0.2386    0.7877 H         1 <0>         0.0802
     34 H6         -1.5255   -1.0748    1.7708 H         1 <0>         0.1512
     35 H7         -3.7661   -2.0889    1.6834 H         1 <0>         0.1674
     36 H8         -4.7730    0.4422   -1.6129 H         1 <0>         0.1545
     37 H9         -6.1566   -1.5270   -0.8698 H         1 <0>         0.4113
     38 H10        -9.1027   -1.8098   -0.2054 H         1 <0>         0.0823
     39 H11        -7.5845   -2.2586   -1.0256 H         1 <0>         0.0900
     40 H12        -9.4578   -3.9971   -1.1844 H         1 <0>         0.1566
     41 H13        -7.9177   -4.6048   -0.5225 H         1 <0>         0.0782
     42 H14        -9.3962   -4.4450    2.9923 H         1 <0>         0.1122
     43 H15        -7.8780   -4.8937    2.1720 H         1 <0>         0.0820
     44 H16        -7.5197   -2.7152    3.1496 H         1 <0>         0.1134
     45 H17        -9.0608   -2.1049    2.4926 H         1 <0>         0.0782
     46 H18       -13.2287   -5.2965    0.3338 H         1 <0>         0.4137
     47 H19       -12.9084   -4.9113   -2.5431 H         1 <0>         0.0949
     48 H20       -12.1722   -7.2574   -2.2227 H         1 <0>         0.0618
     49 H21       -13.6934   -7.6186   -1.3721 H         1 <0>         0.0604
     50 H22       -13.7200   -7.1875   -3.0988 H         1 <0>         0.0721
     51 H23       -14.9584   -4.1176   -1.3959 H         1 <0>         0.0645
     52 H24       -15.3471   -5.3539   -2.6160 H         1 <0>         0.0789
     53 H25       -15.3205   -5.7850   -0.8892 H         1 <0>         0.0649
@<TRIPOS>BOND
     1    1    2 1
     2    1   29 1
     3    1   30 1
     4    1   31 1
     5    2    3 1
     6    2   32 1
     7    2   33 1
     8    3    8 ar
     9    3    4 ar
    10    4    5 ar
    11    4   34 1
    12    5    6 ar
    13    5   35 1
    14    6    7 ar
    15    6   12 1
    16    7    8 ar
    17    7   36 1
    18    8    9 1
    19    9   10 2
    20    9   11 1
    21   12   13 am
    22   12   37 1
    23   13   14 2
    24   13   15 am
    25   15   20 1
    26   15   16 1
    27   16   17 1
    28   16   38 1
    29   16   39 1
    30   17   18 1
    31   17   40 1
    32   17   41 1
    33   18   19 1
    34   18   21 am
    35   19   20 1
    36   19   42 1
    37   19   43 1
    38   20   44 1
    39   20   45 1
    40   21   22 2
    41   21   23 1
    42   23   24 2
    43   23   25 am
    44   25   26 1
    45   25   46 1
    46   26   27 1
    47   26   28 1
    48   26   47 1
    49   27   48 1
    50   27   49 1
    51   27   50 1
    52   28   51 1
    53   28   52 1
    54   28   53 1
