@<TRIPOS>MOLECULE
ZINC13590391
   40    44     0     0     0
SMALL
USER_CHARGES
[(5-bromo-2,4-dihydroxy-phenyl)methyleneamino]spiro[BLAH-BLAH,1'-cyclopropane]dione
@<TRIPOS>ATOM
      1 C1         -4.7922   -0.4030    0.3686 C.ar      1 <0>        -0.0207
      2 C2         -3.5440   -1.0193    0.2413 C.ar      1 <0>        -0.1023
      3 C3         -3.4570   -2.4190    0.2330 C.ar      1 <0>         0.1861
      4 C4         -4.6074   -3.1801    0.3456 C.ar      1 <0>        -0.1758
      5 C5         -5.8419   -2.5595    0.4667 C.ar      1 <0>         0.1770
      6 C6         -5.9309   -1.1714    0.4752 C.ar      1 <0>        -0.1404
      7 Br1        -7.6194   -0.3363    0.6408 Br        1 <0>        -0.0239
      8 O1         -6.9685   -3.3103    0.5770 O.3       1 <0>        -0.4818
      9 O2         -2.2479   -3.0255    0.1143 O.3       1 <0>        -0.4677
     10 C7         -2.3248   -0.2022    0.1224 C.2       1 <0>         0.1263
     11 N1         -1.1661   -0.7774    0.0096 N.2       1 <0>        -0.2332
     12 N2          0.0021   -0.0042    0.0033 N.am      1 <0>        -0.4282
     13 C8          1.2262   -0.5435    0.0014 C.2       1 <0>         0.5530
     14 O3          1.4673   -1.7317    0.0040 O.2       1 <0>        -0.4467
     15 C9          2.2626    0.5568   -0.0050 C.3       1 <0>        -0.1135
     16 H1          2.9578    0.4921   -0.8420 H         1 <0>         0.1459
     17 C10         2.9541    0.5788    1.4002 C.3       1 <0>        -0.0185
     18 H2          3.3751   -0.3628    1.7527 H         1 <0>         0.1217
     19 C11         3.9028    1.7872    1.3044 C.2       1 <0>        -0.1514
     20 C12         3.1670    2.9106    1.2946 C.2       1 <0>        -0.1538
     21 C13         1.6906    2.4876    1.3980 C.3       1 <0>        -0.0208
     22 H3          0.9879    3.2435    1.7484 H         1 <0>         0.1181
     23 C14         1.4018    1.8573   -0.0066 C.3       1 <0>        -0.1213
     24 H4          1.6149    2.5212   -0.8444 H         1 <0>         0.1435
     25 C15        -0.0160    1.3333   -0.0010 C.2       1 <0>         0.5153
     26 O4         -1.0155    2.0195   -0.0049 O.2       1 <0>        -0.4790
     27 C16         1.8263    1.2059    2.2534 C.3       1 <0>        -0.1532
     28 C17         0.6858    0.4516    2.8648 C.3       1 <0>        -0.1725
     29 C18         1.7353    1.1474    3.7464 C.3       1 <0>        -0.1383
     30 H5         -4.8643    0.6745    0.3797 H         1 <0>         0.1502
     31 H6         -4.5438   -4.2583    0.3395 H         1 <0>         0.1511
     32 H7         -7.2085   -3.5279    1.4881 H         1 <0>         0.4010
     33 H8         -1.8113   -3.2011    0.9592 H         1 <0>         0.3990
     34 H9         -2.3943    0.8756    0.1291 H         1 <0>         0.1693
     35 H10         4.9804    1.7421    1.2472 H         1 <0>         0.1409
     36 H11         3.5314    3.9257    1.2375 H         1 <0>         0.1448
     37 H12        -0.3052    0.9021    2.8088 H         1 <0>         0.0941
     38 H13         0.7135   -0.6367    2.8106 H         1 <0>         0.0994
     39 H14         2.4521    0.5160    4.2714 H         1 <0>         0.1035
     40 H15         1.4356    2.0554    4.2697 H         1 <0>         0.1029
@<TRIPOS>BOND
     1    1    6 ar
     2    1    2 ar
     3    1   30 1
     4    2    3 ar
     5    2   10 1
     6    3    4 ar
     7    3    9 1
     8    4    5 ar
     9    4   31 1
    10    5    6 ar
    11    5    8 1
    12    6    7 1
    13    8   32 1
    14    9   33 1
    15   10   11 2
    16   10   34 1
    17   11   12 1
    18   12   25 am
    19   12   13 am
    20   13   14 2
    21   13   15 1
    22   15   16 1
    23   15   23 1
    24   15   17 1
    25   17   18 1
    26   17   27 1
    27   17   19 1
    28   19   20 2
    29   19   35 1
    30   20   21 1
    31   20   36 1
    32   21   22 1
    33   21   23 1
    34   21   27 1
    35   23   24 1
    36   23   25 1
    37   25   26 2
    38   27   29 1
    39   27   28 1
    40   28   29 1
    41   28   37 1
    42   28   38 1
    43   29   39 1
    44   29   40 1
