@<TRIPOS>MOLECULE
ZINC16075531
   49    51     0     0     0
SMALL
USER_CHARGES
(5S)-3-[[(2R,6S)-2,6-dimethylmorpholin-4-yl]methyl]-5-ethyl-5-phenyl-imidazolidine-2,4-dione
@<TRIPOS>ATOM
      1 C1         -2.0383    4.9061    6.0680 C.3       1 <0>        -0.1595
      2 C2         -1.0561    5.0281    7.2347 C.3       1 <0>        -0.1156
      3 C3         -0.4741    3.6505    7.5576 C.3       1 <0>         0.1575
      4 C4          0.2607    3.0799    6.3608 C.2       1 <0>         0.5427
      5 O1          1.2323    3.5476    5.8069 O.2       1 <0>        -0.4545
      6 N1         -0.3919    1.9453    6.0396 N.am      1 <0>        -0.5681
      7 C5         -1.4216    1.7183    6.8631 C.2       1 <0>         0.7156
      8 O2         -2.1569    0.7545    6.7756 O.2       1 <0>        -0.5424
      9 N2         -1.5521    2.6760    7.7988 N.am      1 <0>        -0.7262
     10 C6         -0.0163    1.0660    4.9297 C.3       1 <0>         0.2845
     11 N3         -0.7241    1.4844    3.7124 N.3       1 <0>        -0.5522
     12 C7         -2.0956    0.9553    3.6921 C.3       1 <0>         0.0245
     13 C8         -2.8143    1.4632    2.4394 C.3       1 <0>         0.0931
     14 H1         -2.8601    2.5621    2.4206 H         1 <0>         0.0638
     15 O3         -2.0691    1.0805    1.2803 O.3       1 <0>        -0.3879
     16 C9         -0.7288    1.5792    1.2668 C.3       1 <0>         0.0931
     17 H2         -0.8134    2.6759    1.2700 H         1 <0>         0.0668
     18 C10         0.0110    1.0725    2.5077 C.3       1 <0>         0.0294
     19 C11        -0.0127    1.0858    0.0080 C.3       1 <0>        -0.1457
     20 C12        -4.2156    0.8529    2.3715 C.3       1 <0>        -0.1450
     21 C13         0.4445    3.7309    8.7496 C.ar      1 <0>        -0.0986
     22 C14         1.1142    4.9077    9.0279 C.ar      1 <0>        -0.0932
     23 C15         1.9538    4.9826   10.1236 C.ar      1 <0>        -0.1172
     24 C16         2.1303    3.8781   10.9359 C.ar      1 <0>        -0.1075
     25 C17         1.4642    2.6999   10.6548 C.ar      1 <0>        -0.1182
     26 C18         0.6217    2.6261    9.5614 C.ar      1 <0>        -0.1005
     27 H3         -2.4567    5.8966    5.8359 H         1 <0>         0.0683
     28 H4         -2.8523    4.2197    6.3442 H         1 <0>         0.0608
     29 H5         -1.5120    4.5143    5.1851 H         1 <0>         0.0568
     30 H6         -0.2421    5.7145    6.9585 H         1 <0>         0.0905
     31 H7         -1.5823    5.4199    8.1176 H         1 <0>         0.0895
     32 H8         -2.2592    2.8318    8.6269 H         1 <0>         0.4699
     33 H9          1.0691    1.1294    4.7629 H         1 <0>         0.1095
     34 H10        -0.2896    0.0291    5.1747 H         1 <0>         0.0820
     35 H11        -2.0643   -0.1442    3.6788 H         1 <0>         0.0508
     36 H12        -2.6334    1.2959    4.5892 H         1 <0>         0.0924
     37 H13         1.0244    1.4995    2.5326 H         1 <0>         0.0920
     38 H14         0.0763   -0.0251    2.4753 H         1 <0>         0.0518
     39 H15         1.0181    1.4697   -0.0017 H         1 <0>         0.0747
     40 H16        -0.5470    1.4470   -0.8831 H         1 <0>         0.0688
     41 H17         0.0056   -0.0140    0.0039 H         1 <0>         0.0650
     42 H18        -4.7314    1.2182    1.4712 H         1 <0>         0.0680
     43 H19        -4.7865    1.1451    3.2652 H         1 <0>         0.0735
     44 H20        -4.1364   -0.2434    2.3292 H         1 <0>         0.0651
     45 H21         0.9792    5.7694    8.3911 H         1 <0>         0.1302
     46 H22         2.4744    5.9030   10.3430 H         1 <0>         0.1284
     47 H23         2.7888    3.9356   11.7900 H         1 <0>         0.1261
     48 H24         1.6024    1.8369   11.2892 H         1 <0>         0.1261
     49 H25         0.1016    1.7055    9.3416 H         1 <0>         0.1214
@<TRIPOS>BOND
     1    1    2 1
     2    1   27 1
     3    1   28 1
     4    1   29 1
     5    2    3 1
     6    2   30 1
     7    2   31 1
     8    3    9 1
     9    3    4 1
    10    3   21 1
    11    4    5 2
    12    4    6 am
    13    6    7 am
    14    6   10 1
    15    7    8 2
    16    7    9 am
    17    9   32 1
    18   10   11 1
    19   10   33 1
    20   10   34 1
    21   11   18 1
    22   11   12 1
    23   12   13 1
    24   12   35 1
    25   12   36 1
    26   13   14 1
    27   13   15 1
    28   13   20 1
    29   15   16 1
    30   16   17 1
    31   16   18 1
    32   16   19 1
    33   18   37 1
    34   18   38 1
    35   19   39 1
    36   19   40 1
    37   19   41 1
    38   20   42 1
    39   20   43 1
    40   20   44 1
    41   21   26 ar
    42   21   22 ar
    43   22   23 ar
    44   22   45 1
    45   23   24 ar
    46   23   46 1
    47   24   25 ar
    48   24   47 1
    49   25   26 ar
    50   25   48 1
    51   26   49 1
