@<TRIPOS>MOLECULE
ZINC19101303
   52    55     0     0     0
SMALL
USER_CHARGES
N-(2-ethylamino-5-morpholinosulfonyl-phenyl)-2,1,3-benzothiadiazole-4-sulfonamide
@<TRIPOS>ATOM
      1 C1          1.3777   -1.9484   -6.3335 C.3       1 <0>        -0.1668
      2 C2          2.6622   -1.9003   -5.5037 C.3       1 <0>         0.1148
      3 N1          2.3609   -2.2612   -4.1162 N.pl3     1 <0>        -0.7352
      4 C3          3.3849   -2.2876   -3.1616 C.ar      1 <0>         0.2716
      5 C4          4.6838   -1.9667   -3.5260 C.ar      1 <0>        -0.2157
      6 C5          5.6945   -1.9995   -2.5830 C.ar      1 <0>         0.0312
      7 C6          5.4134   -2.3453   -1.2743 C.ar      1 <0>        -0.7214
      8 C7          4.1201   -2.6608   -0.9008 C.ar      1 <0>         0.0564
      9 C8          3.1004   -2.6309   -1.8400 C.ar      1 <0>         0.0478
     10 N2          1.7899   -2.9500   -1.4640 N.pl3     1 <0>        -1.0515
     11 S1          0.9939   -2.0100   -0.3572 S.o2      1 <0>         2.6876
     12 O1          1.8915   -1.8102    0.7262 O.2       1 <0>        -0.9225
     13 O2         -0.2926   -2.5879   -0.1840 O.2       1 <0>        -0.9518
     14 C9          0.7414   -0.4320   -1.0995 C.ar      1 <0>        -0.6371
     15 C10        -0.5153   -0.0005   -1.3617 C.ar      1 <0>         0.0405
     16 C11        -0.7525    1.2428   -1.9479 C.ar      1 <0>        -0.1311
     17 C12         0.2633    2.0743   -2.2813 C.ar      1 <0>         0.0027
     18 C13         1.6067    1.6880   -2.0356 C.ar      1 <0>         0.0434
     19 C14         1.8549    0.3867   -1.4220 C.ar      1 <0>         0.1252
     20 N3          3.1547    0.1549   -1.2499 N.2       1 <0>        -0.5410
     21 S2          3.9013    1.4195   -1.7967 S.3       1 <0>         0.7752
     22 N4          2.7364    2.3475   -2.2837 N.2       1 <0>        -0.5405
     23 S3          6.7073   -2.3846   -0.0789 S.o2      1 <0>         2.6882
     24 O3          7.7289   -1.5206   -0.5575 O.2       1 <0>        -0.9553
     25 O4          6.0931   -2.2082    1.1904 O.2       1 <0>        -0.9457
     26 N5          7.3383   -3.9156   -0.0906 N.pl3     1 <0>        -1.0031
     27 C15         6.8025   -4.9626    0.7938 C.3       1 <0>         0.0845
     28 C16         6.5054   -6.2055   -0.0604 C.3       1 <0>         0.0471
     29 O5          7.6719   -6.5468   -0.8132 O.3       1 <0>        -0.3755
     30 C17         8.0815   -5.5430   -1.7451 C.3       1 <0>         0.0472
     31 C18         8.4555   -4.2677   -0.9812 C.3       1 <0>         0.0860
     32 H1          0.9622   -2.9556   -6.3021 H         1 <0>         0.0646
     33 H2          0.6538   -1.2439   -5.9238 H         1 <0>         0.0616
     34 H3          1.6018   -1.6799   -7.3659 H         1 <0>         0.0778
     35 H4          3.0776   -0.8931   -5.5352 H         1 <0>         0.0618
     36 H5          3.3860   -2.6048   -5.9134 H         1 <0>         0.0685
     37 H6          1.4521   -2.4818   -3.8588 H         1 <0>         0.4018
     38 H7          4.9068   -1.6961   -4.5475 H         1 <0>         0.1342
     39 H8          6.7064   -1.7539   -2.8696 H         1 <0>         0.1416
     40 H9          3.9041   -2.9308    0.1223 H         1 <0>         0.1517
     41 H10         1.3483   -3.7216   -1.8519 H         1 <0>         0.4218
     42 H11        -1.3535   -0.6337   -1.1107 H         1 <0>         0.1592
     43 H12        -1.7697    1.5477   -2.1447 H         1 <0>         0.1518
     44 H13         0.0510    3.0314   -2.7344 H         1 <0>         0.1497
     45 H14         7.5378   -5.2075    1.5602 H         1 <0>         0.0856
     46 H15         5.8843   -4.6111    1.2644 H         1 <0>         0.1009
     47 H16         5.6814   -5.9938   -0.7417 H         1 <0>         0.0573
     48 H17         6.2355   -7.0376    0.5900 H         1 <0>         0.1074
     49 H18         7.2632   -5.3289   -2.4326 H         1 <0>         0.0568
     50 H19         8.9459   -5.8981   -2.3062 H         1 <0>         0.1069
     51 H20         8.6325   -3.4558   -1.6867 H         1 <0>         0.0993
     52 H21         9.3546   -4.4432   -0.3906 H         1 <0>         0.0845
@<TRIPOS>BOND
     1    1    2 1
     2    1   32 1
     3    1   33 1
     4    1   34 1
     5    2    3 1
     6    2   35 1
     7    2   36 1
     8    3    4 1
     9    3   37 1
    10    4    9 ar
    11    4    5 ar
    12    5    6 ar
    13    5   38 1
    14    6    7 ar
    15    6   39 1
    16    7    8 ar
    17    7   23 1
    18    8    9 ar
    19    8   40 1
    20    9   10 1
    21   10   11 1
    22   10   41 1
    23   11   12 2
    24   11   13 2
    25   11   14 1
    26   14   19 ar
    27   14   15 ar
    28   15   16 ar
    29   15   42 1
    30   16   17 ar
    31   16   43 1
    32   17   18 ar
    33   17   44 1
    34   18   22 2
    35   18   19 ar
    36   19   20 2
    37   20   21 1
    38   21   22 1
    39   23   24 2
    40   23   25 2
    41   23   26 1
    42   26   31 1
    43   26   27 1
    44   27   28 1
    45   27   45 1
    46   27   46 1
    47   28   29 1
    48   28   47 1
    49   28   48 1
    50   29   30 1
    51   30   31 1
    52   30   49 1
    53   30   50 1
    54   31   51 1
    55   31   52 1
