@<TRIPOS>MOLECULE
ZINC12498331
   68    71     0     0     0
SMALL
USER_CHARGES
methyl (3aS,4R,6S,6aS)-2-(3-acetylphenyl)-4-(4-dimethylaminophenyl)-6-(2-methylsulfanylethyl)-1,3-dioxo-3a,4,5,6a-tetrahydropyrrolo[3,4-c]pyrrole-6-carboxylate
@<TRIPOS>ATOM
      1 C1          7.2384    2.6173    0.6925 C.3       1 <0>        -0.1928
      2 C2          5.8275    3.0815    0.4381 C.2       1 <0>         0.3929
      3 O1          5.6054    4.2526    0.2156 O.2       1 <0>        -0.4463
      4 C3          4.7190    2.1135    0.4597 C.ar      1 <0>        -0.1471
      5 C4          4.9718    0.7618    0.7165 C.ar      1 <0>        -0.0710
      6 C5          3.9304   -0.1419    0.7363 C.ar      1 <0>        -0.1037
      7 C6          2.6342    0.2837    0.5086 C.ar      1 <0>        -0.1070
      8 C7          2.3723    1.6230    0.2468 C.ar      1 <0>         0.1033
      9 C8          3.4095    2.5408    0.2241 C.ar      1 <0>        -0.0815
     10 N1          1.0565    2.0466    0.0111 N.am      1 <0>        -0.5303
     11 C9          0.7142    3.3440   -0.2475 C.2       1 <0>         0.5528
     12 O2          1.4012    4.3269   -0.0700 O.2       1 <0>        -0.4010
     13 C10        -0.6776    3.3085   -0.7933 C.3       1 <0>        -0.1348
     14 H1         -0.6896    3.1496   -1.8716 H         1 <0>         0.1755
     15 C11        -1.7268    4.3148   -0.3553 C.3       1 <0>         0.1211
     16 H2         -1.8937    5.0505   -1.1420 H         1 <0>         0.1790
     17 C12        -2.6243    2.0685   -0.2270 C.3       1 <0>         0.1405
     18 C13        -1.1777    2.0637    0.0218 C.3       1 <0>        -0.1869
     19 H3         -1.1612    2.4304    1.0481 H         1 <0>         0.1302
     20 C14        -0.0262    1.2024    0.0158 C.2       1 <0>         0.5867
     21 O3         -0.0141   -0.0098    0.0106 O.2       1 <0>        -0.4050
     22 C15        -2.9340    1.5432   -1.6302 C.3       1 <0>        -0.1211
     23 C16        -4.4067    1.7987   -1.9568 C.3       1 <0>        -0.1259
     24 S1         -4.7739    1.1758   -3.6205 S.3       1 <0>        -0.2124
     25 C17        -6.5338    1.5505   -3.8509 C.3       1 <0>        -0.1267
     26 C18        -3.3540    1.2625    0.8165 C.2       1 <0>         0.4462
     27 O4         -2.8101    0.3195    1.3409 O.2       1 <0>        -0.4188
     28 O5         -4.6081    1.5920    1.1634 O.3       1 <0>        -0.3589
     29 C19        -5.2495    0.7714    2.1751 C.3       1 <0>         0.0323
     30 C20        -1.2917    5.0001    0.9144 C.ar      1 <0>        -0.2314
     31 C21        -1.5484    4.4112    2.1390 C.ar      1 <0>        -0.0841
     32 C22        -1.1460    5.0337    3.3043 C.ar      1 <0>        -0.1806
     33 C23        -0.4927    6.2582    3.2457 C.ar      1 <0>         0.2519
     34 C24        -0.2414    6.8497    2.0142 C.ar      1 <0>        -0.1824
     35 C25        -0.6415    6.2190    0.8526 C.ar      1 <0>        -0.0029
     36 N2         -0.0898    6.8936    4.4226 N.pl3     1 <0>        -0.6202
     37 C26         0.5987    8.1852    4.3590 C.3       1 <0>         0.0802
     38 C27        -0.3556    6.2683    5.7205 C.3       1 <0>         0.0838
     39 H4          7.4958    1.9399    0.0034 H         1 <0>         0.0873
     40 H5          7.9168    3.4686    0.6363 H         1 <0>         0.0904
     41 H6          7.3000    2.1685    1.6839 H         1 <0>         0.0971
     42 H7          5.9819    0.4263    0.8996 H         1 <0>         0.1437
     43 H8          4.1270   -1.1851    0.9351 H         1 <0>         0.1449
     44 H9          1.8227   -0.4286    0.5303 H         1 <0>         0.1553
     45 H10         3.2069    3.5828    0.0255 H         1 <0>         0.1610
     46 H11        -2.3060    2.0577   -2.3575 H         1 <0>         0.1249
     47 H12        -2.7334    0.4726   -1.6698 H         1 <0>         0.1398
     48 H13        -5.0347    1.2842   -1.2295 H         1 <0>         0.1045
     49 H14        -4.6073    2.8693   -1.9172 H         1 <0>         0.0814
     50 H15        -7.1171    1.0412   -3.0837 H         1 <0>         0.0837
     51 H16        -6.6896    2.6264   -3.7715 H         1 <0>         0.0830
     52 H17        -6.8521    1.2090   -4.8358 H         1 <0>         0.1141
     53 H18        -6.2563    1.1452    2.3615 H         1 <0>         0.1223
     54 H19        -5.3035   -0.2597    1.8259 H         1 <0>         0.0810
     55 H20        -4.6700    0.8128    3.0974 H         1 <0>         0.0780
     56 H21        -2.0606    3.4614    2.1840 H         1 <0>         0.1039
     57 H22        -1.3429    4.5712    4.2601 H         1 <0>         0.1338
     58 H23         0.2666    7.8015    1.9652 H         1 <0>         0.1395
     59 H24        -0.4468    6.6784   -0.1052 H         1 <0>         0.1387
     60 H25        -0.1355    8.9902    4.3913 H         1 <0>         0.0608
     61 H26         1.2768    8.2776    5.2073 H         1 <0>         0.0780
     62 H27         1.1669    8.2487    3.4309 H         1 <0>         0.0753
     63 H28         0.1371    5.2970    5.7636 H         1 <0>         0.0607
     64 H29         0.0284    6.9062    6.5165 H         1 <0>         0.0847
     65 H30        -1.4302    6.1365    5.8470 H         1 <0>         0.0619
     66 N3         -2.9621    3.5223   -0.1167 N.4       1 <0>        -0.5226
     67 H31        -3.6711    3.7670   -0.8179 H         1 <0>         0.4450
     68 H32        -3.3259    3.7227    0.8223 H         1 <0>         0.4442
@<TRIPOS>BOND
     1    1    2 1
     2    1   39 1
     3    1   40 1
     4    1   41 1
     5    2    3 2
     6    2    4 1
     7    4    9 ar
     8    4    5 ar
     9    5    6 ar
    10    5   42 1
    11    6    7 ar
    12    6   43 1
    13    7    8 ar
    14    7   44 1
    15    8    9 ar
    16    8   10 1
    17    9   45 1
    18   10   20 am
    19   10   11 am
    20   11   12 2
    21   11   13 1
    22   13   14 1
    23   13   18 1
    24   13   15 1
    25   15   16 1
    26   15   30 1
    27   15   66 1
    28   17   18 1
    29   17   22 1
    30   17   26 1
    31   17   66 1
    32   18   19 1
    33   18   20 1
    34   20   21 2
    35   22   23 1
    36   22   46 1
    37   22   47 1
    38   23   24 1
    39   23   48 1
    40   23   49 1
    41   24   25 1
    42   25   50 1
    43   25   51 1
    44   25   52 1
    45   26   27 2
    46   26   28 1
    47   28   29 1
    48   29   53 1
    49   29   54 1
    50   29   55 1
    51   30   35 ar
    52   30   31 ar
    53   31   32 ar
    54   31   56 1
    55   32   33 ar
    56   32   57 1
    57   33   34 ar
    58   33   36 1
    59   34   35 ar
    60   34   58 1
    61   35   59 1
    62   36   37 1
    63   36   38 1
    64   37   60 1
    65   37   61 1
    66   37   62 1
    67   38   63 1
    68   38   64 1
    69   38   65 1
    70   66   67 1
    71   66   68 1
