@<TRIPOS>MOLECULE
ZINC09835480
   42    46     0     0     0
SMALL
USER_CHARGES
(2-fluorophenyl)BLAHamine
@<TRIPOS>ATOM
      1 C1          1.2084   -0.6796   -0.0127 C.ar      1 <0>        -0.1273
      2 C2          0.0021   -0.0041    0.0020 C.ar      1 <0>        -0.0727
      3 C3         -0.0167    1.3775    0.0096 C.ar      1 <0>        -0.1511
      4 C4          1.1734    2.0857    0.0021 C.ar      1 <0>         0.1278
      5 C5          2.3806    1.4083   -0.0136 C.ar      1 <0>        -0.1727
      6 C6          2.3969    0.0262   -0.0207 C.ar      1 <0>        -0.0632
      7 C7          3.6765    2.1774   -0.0228 C.3       1 <0>         0.4429
      8 H1          3.5630    3.0922   -0.6046 H         1 <0>         0.1274
      9 N1          4.7525    1.3466   -0.5933 N.pl3     1 <0>        -0.7607
     10 C8          5.3993    0.4316    0.1946 C.2       1 <0>         0.6615
     11 N2          5.5428    0.6207    1.4947 N.2       1 <0>        -0.5576
     12 C9          4.9778    1.7186    2.0518 C.2       1 <0>         0.5115
     13 N3          4.0777    2.5021    1.3506 N.pl3     1 <0>        -0.5490
     14 C10         3.6954    3.5354    2.1706 C.ar      1 <0>         0.0720
     15 C11         2.8463    4.6248    2.0250 C.ar      1 <0>        -0.1110
     16 C12         2.6740    5.5081    3.0734 C.ar      1 <0>         0.0804
     17 C13         3.3451    5.3141    4.2774 C.ar      1 <0>         0.0638
     18 C14         4.1911    4.2371    4.4398 C.ar      1 <0>        -0.0686
     19 C15         4.3759    3.3361    3.3865 C.ar      1 <0>         0.0779
     20 N4          5.1299    2.2103    3.2533 N.2       1 <0>        -0.4807
     21 O1          3.1635    6.2006    5.3005 O.3       1 <0>        -0.3141
     22 C16         1.8681    6.2035    5.9032 C.3       1 <0>         0.0590
     23 C17         0.9105    7.0867    5.1188 C.3       1 <0>        -0.1874
     24 C18         0.6481    6.5550    3.7186 C.3       1 <0>         0.0603
     25 O2          1.8413    6.5821    2.9331 O.3       1 <0>        -0.3149
     26 N5          5.9077   -0.7035   -0.3770 N.pl3     1 <0>        -0.8175
     27 F1          1.1563    3.4365    0.0090 F         1 <0>        -0.1296
     28 H2          1.2221   -1.7595   -0.0182 H         1 <0>         0.1360
     29 H3         -0.9259   -0.5565    0.0079 H         1 <0>         0.1399
     30 H4         -0.9591    1.9050    0.0170 H         1 <0>         0.1434
     31 H5          3.3385   -0.5025   -0.0329 H         1 <0>         0.1295
     32 H6          5.0019    1.4476   -1.5253 H         1 <0>         0.4209
     33 H7          2.3215    4.7810    1.0941 H         1 <0>         0.1381
     34 H8          4.7081    4.0899    5.3765 H         1 <0>         0.1440
     35 H9          1.4804    5.1850    5.9253 H         1 <0>         0.0575
     36 H10         1.9478    6.5792    6.9233 H         1 <0>         0.1046
     37 H11        -0.0356    7.1466    5.6568 H         1 <0>         0.0903
     38 H12         1.3353    8.0876    5.0427 H         1 <0>         0.0846
     39 H13         0.2868    5.5289    3.7865 H         1 <0>         0.0565
     40 H14        -0.1118    7.1709    3.2377 H         1 <0>         0.1036
     41 H15         5.8080   -0.8530   -1.3302 H         1 <0>         0.4153
     42 H16         6.3676   -1.3584    0.1712 H         1 <0>         0.4293
@<TRIPOS>BOND
     1    1    6 ar
     2    1    2 ar
     3    1   28 1
     4    2    3 ar
     5    2   29 1
     6    3    4 ar
     7    3   30 1
     8    4    5 ar
     9    4   27 1
    10    5    6 ar
    11    5    7 1
    12    6   31 1
    13    7    8 1
    14    7   13 1
    15    7    9 1
    16    9   10 1
    17    9   32 1
    18   10   11 2
    19   10   26 1
    20   11   12 1
    21   12   20 2
    22   12   13 1
    23   13   14 1
    24   14   19 ar
    25   14   15 ar
    26   15   16 ar
    27   15   33 1
    28   16   25 1
    29   16   17 ar
    30   17   18 ar
    31   17   21 1
    32   18   19 ar
    33   18   34 1
    34   19   20 1
    35   21   22 1
    36   22   23 1
    37   22   35 1
    38   22   36 1
    39   23   24 1
    40   23   37 1
    41   23   38 1
    42   24   25 1
    43   24   39 1
    44   24   40 1
    45   26   41 1
    46   26   42 1
