@<TRIPOS>MOLECULE
ZINC41258881
   33    34     0     0     0
SMALL
USER_CHARGES

@<TRIPOS>ATOM
      1 C1         -0.0184    1.5028    0.0103 C.3       1 <0>        -0.1166
      2 C2          0.0021   -0.0041    0.0020 C.ar      1 <0>        -0.0772
      3 C3          0.0057   -0.6876   -1.1998 C.ar      1 <0>        -0.1173
      4 C4          0.0240   -2.0689   -1.2101 C.ar      1 <0>        -0.0876
      5 C5          0.0391   -2.7702   -0.0132 C.ar      1 <0>         0.0802
      6 C6          0.0359   -2.0820    1.1914 C.ar      1 <0>        -0.0876
      7 C7          0.0229   -0.7006    1.1962 C.ar      1 <0>        -0.1174
      8 C8          0.0523   -2.8406    2.4934 C.3       1 <0>        -0.1165
      9 O1          0.0567   -4.1291   -0.0207 O.3       1 <0>        -0.3192
     10 C9          1.3382   -4.7613   -0.0307 C.3       1 <0>         0.1399
     11 C10         1.1600   -6.2577   -0.0380 C.2       1 <0>         0.1367
     12 C11        -0.0643   -6.9389   -0.0410 C.2       1 <0>        -0.3533
     13 C12         0.1964   -8.2729   -0.0483 C.2       1 <0>         0.3486
     14 O2          1.5310   -8.4302   -0.0499 O.3       1 <0>        -0.1066
     15 N1          2.1195   -7.1422   -0.0482 N.2       1 <0>        -0.3270
     16 N2         -0.7434   -9.2868   -0.0529 N.pl3     1 <0>        -0.8175
     17 C13         0.0269   -2.8133   -2.5204 C.3       1 <0>        -0.1165
     18 H1          1.0042    1.8801    0.0026 H         1 <0>         0.0725
     19 H2         -0.5455    1.8639   -0.8728 H         1 <0>         0.0681
     20 H3         -0.5286    1.8543    0.9071 H         1 <0>         0.0680
     21 H4         -0.0061   -0.1412   -2.1314 H         1 <0>         0.1269
     22 H5          0.0248   -0.1643    2.1337 H         1 <0>         0.1269
     23 H6          1.0838   -3.0099    2.8023 H         1 <0>         0.0695
     24 H7         -0.4655   -2.2614    3.2579 H         1 <0>         0.0694
     25 H8         -0.4495   -3.7992    2.3617 H         1 <0>         0.0747
     26 H9          1.8867   -4.4564   -0.9219 H         1 <0>         0.0837
     27 H10         1.8959   -4.4661    0.8580 H         1 <0>         0.0837
     28 H11        -1.0437   -6.4838   -0.0377 H         1 <0>         0.1588
     29 H12        -1.6892   -9.0714   -0.0509 H         1 <0>         0.4274
     30 H13        -0.4571  -10.2135   -0.0581 H         1 <0>         0.4119
     31 H14         1.0552   -2.9792   -2.8418 H         1 <0>         0.0695
     32 H15        -0.4736   -3.7734   -2.3940 H         1 <0>         0.0747
     33 H16        -0.4988   -2.2259   -3.2732 H         1 <0>         0.0694
@<TRIPOS>BOND
     1    1    2 1
     2    1   18 1
     3    1   19 1
     4    1   20 1
     5    2    7 ar
     6    2    3 ar
     7    3    4 ar
     8    3   21 1
     9    4    5 ar
    10    4   17 1
    11    5    6 ar
    12    5    9 1
    13    6    7 ar
    14    6    8 1
    15    7   22 1
    16    8   23 1
    17    8   24 1
    18    8   25 1
    19    9   10 1
    20   10   11 1
    21   10   26 1
    22   10   27 1
    23   11   15 2
    24   11   12 1
    25   12   13 2
    26   12   28 1
    27   13   14 1
    28   13   16 1
    29   14   15 1
    30   16   29 1
    31   16   30 1
    32   17   31 1
    33   17   32 1
    34   17   33 1
