@<TRIPOS>MOLECULE
ZINC63941221
   63    66     0     0     0
SMALL
USER_CHARGES

@<TRIPOS>ATOM
      1 C1          0.3588    1.9451    0.1817 C.3       1 <0>        -0.1531
      2 C2          0.5606    0.4406   -0.0094 C.3       1 <0>        -0.1198
      3 C3          0.8802   -0.2066    1.3396 C.3       1 <0>        -0.0929
      4 C4         -0.3291   -0.0750    2.2676 C.3       1 <0>        -0.1276
      5 C5          0.0531   -0.5440    3.6730 C.3       1 <0>        -0.1689
      6 C6          1.2043   -1.6872    1.1310 C.3       1 <0>         0.1825
      7 H1          1.9850   -1.8175    0.3815 H         1 <0>         0.1135
      8 N1          1.5672   -2.3444    2.4070 N.pl3     1 <0>        -0.6085
      9 N2          0.7269   -3.3609    2.8029 N.2       1 <0>        -0.2311
     10 C7         -0.3124   -3.7316    2.1225 C.2       1 <0>         0.2957
     11 S1         -0.3046   -2.6490    0.7006 S.3       1 <0>        -0.1796
     12 N3         -1.2228   -4.7393    2.4280 N.am      1 <0>        -0.6083
     13 C8         -1.0729   -5.4639    3.5545 C.2       1 <0>         0.5215
     14 O1         -0.1448   -5.2381    4.3019 O.2       1 <0>        -0.4747
     15 C9         -2.0586   -6.5549    3.8853 C.3       1 <0>        -0.1176
     16 H2         -2.0830   -7.3078    3.0975 H         1 <0>         0.1297
     17 C10        -3.4679   -5.9700    4.1357 C.3       1 <0>        -0.1504
     18 C11        -4.0272   -6.8172    5.2574 C.2       1 <0>         0.5261
     19 O2         -5.1986   -6.8756    5.5660 O.2       1 <0>        -0.5143
     20 N4         -3.0370   -7.4960    5.8619 N.am      1 <0>        -0.6223
     21 C12        -1.7351   -7.1961    5.2530 C.3       1 <0>         0.1159
     22 C13        -3.2317   -8.4177    6.9839 C.3       1 <0>         0.1345
     23 C14        -3.4803   -9.8288    6.4475 C.3       1 <0>        -0.1122
     24 C15        -3.6806  -10.7769    7.6017 C.2       1 <0>         0.0657
     25 C16        -4.8593  -11.1685    8.1372 C.ar      1 <0>        -0.1620
     26 C17        -6.2541  -10.8407    7.8184 C.ar      1 <0>        -0.0204
     27 C18        -7.2435  -11.4024    8.5496 C.ar      1 <0>        -0.1135
     28 C19        -6.9709  -12.2871    9.6021 C.ar      1 <0>         0.0593
     29 C20        -5.7156  -12.6365    9.9545 C.ar      1 <0>        -0.2086
     30 C21        -4.5981  -12.1059    9.2529 C.ar      1 <0>         0.3265
     31 N5         -3.3082  -12.2867    9.4013 N.pl3     1 <0>        -0.5871
     32 C22        -2.6046  -11.4881    8.3914 C.3       1 <0>         0.0620
     33 C23        -8.6765  -11.0678    8.2248 C.3       1 <0>        -0.1281
     34 H3          1.2692    2.3850    0.5891 H         1 <0>         0.0554
     35 H4          0.1311    2.4062   -0.7794 H         1 <0>         0.0584
     36 H5         -0.4675    2.1162    0.8716 H         1 <0>         0.0590
     37 H6         -0.3497    0.0008   -0.4168 H         1 <0>         0.0692
     38 H7          1.3870    0.2696   -0.6993 H         1 <0>         0.0661
     39 H8          1.7386    0.2935    1.7882 H         1 <0>         0.0918
     40 H9         -0.6459    0.9672    2.3061 H         1 <0>         0.0688
     41 H10        -1.1460   -0.6894    1.8892 H         1 <0>         0.0770
     42 H11         0.9695   -0.0439    3.9862 H         1 <0>         0.0488
     43 H12        -0.7499   -0.3000    4.3684 H         1 <0>         0.0448
     44 H13         0.2120   -1.6223    3.6654 H         1 <0>         0.0772
     45 H14         2.3417   -2.0783    2.9268 H         1 <0>         0.4409
     46 H15        -1.9650   -4.9199    1.8303 H         1 <0>         0.4294
     47 H16        -3.3988   -4.9267    4.4437 H         1 <0>         0.1169
     48 H17        -4.0847   -6.0649    3.2420 H         1 <0>         0.1211
     49 H18        -1.1628   -8.1132    5.1137 H         1 <0>         0.0921
     50 H19        -1.1798   -6.4952    5.8763 H         1 <0>         0.0998
     51 H20        -2.3405   -8.4193    7.6116 H         1 <0>         0.0931
     52 H21        -4.0905   -8.0964    7.5732 H         1 <0>         0.0957
     53 H22        -4.3714   -9.8271    5.8199 H         1 <0>         0.1128
     54 H23        -2.6214  -10.1501    5.8583 H         1 <0>         0.1148
     55 H24        -6.4867  -10.1609    7.0121 H         1 <0>         0.1610
     56 H25        -7.7993  -12.7063   10.1539 H         1 <0>         0.1606
     57 H26        -5.5590  -13.3224   10.7739 H         1 <0>         0.1613
     58 H27        -2.0232  -12.1359    7.7353 H         1 <0>         0.1736
     59 H28        -1.9529  -10.7618    8.8770 H         1 <0>         0.1726
     60 H29        -9.0579  -11.7776    7.4907 H         1 <0>         0.0867
     61 H30        -9.2777  -11.1252    9.1321 H         1 <0>         0.0814
     62 H31        -8.7304  -10.0586    7.8164 H         1 <0>         0.0821
     63 H32        -2.8891  -12.8563   10.0653 H         1 <0>         0.4554
@<TRIPOS>BOND
     1    1    2 1
     2    1   34 1
     3    1   35 1
     4    1   36 1
     5    2    3 1
     6    2   37 1
     7    2   38 1
     8    3    4 1
     9    3    6 1
    10    3   39 1
    11    4    5 1
    12    4   40 1
    13    4   41 1
    14    5   42 1
    15    5   43 1
    16    5   44 1
    17    6    7 1
    18    6   11 1
    19    6    8 1
    20    8    9 1
    21    8   45 1
    22    9   10 2
    23   10   11 1
    24   10   12 1
    25   12   13 am
    26   12   46 1
    27   13   14 2
    28   13   15 1
    29   15   16 1
    30   15   21 1
    31   15   17 1
    32   17   18 1
    33   17   47 1
    34   17   48 1
    35   18   19 2
    36   18   20 am
    37   20   21 1
    38   20   22 1
    39   21   49 1
    40   21   50 1
    41   22   23 1
    42   22   51 1
    43   22   52 1
    44   23   24 1
    45   23   53 1
    46   23   54 1
    47   24   32 1
    48   24   25 2
    49   25   30 ar
    50   25   26 ar
    51   26   27 ar
    52   26   55 1
    53   27   28 ar
    54   27   33 1
    55   28   29 ar
    56   28   56 1
    57   29   30 ar
    58   29   57 1
    59   30   31 2
    60   31   32 1
    61   31   63 1
    62   32   58 1
    63   32   59 1
    64   33   60 1
    65   33   61 1
    66   33   62 1
