@<TRIPOS>MOLECULE
ZINC52841864
   24    25     0     0     0
SMALL
USER_CHARGES

@<TRIPOS>ATOM
      1 C1          3.6261    3.3843    3.5330 C.2       1 <0>        -0.1474
      2 C2          3.4251    3.3160    2.2109 C.2       1 <0>        -0.1125
      3 C3          3.9815    2.1100    1.5698 C.2       1 <0>        -0.3430
      4 S1          4.7056    1.2622    2.9615 S.3       1 <0>         0.2571
      5 C4          4.3166    2.3542    4.1769 C.2       1 <0>        -0.2908
      6 S2          3.9429    1.6597   -0.0275 S.3       1 <0>         0.1944
      7 C5          4.9331    0.2033   -0.0838 C.ar      1 <0>        -0.2260
      8 C6          4.3298   -1.0567   -0.1866 C.ar      1 <0>        -0.0038
      9 C7          5.1005   -2.1814   -0.2299 C.ar      1 <0>        -0.1291
     10 C8          6.4878   -2.0914   -0.1732 C.ar      1 <0>         0.0787
     11 C9          7.1062   -0.8626   -0.0717 C.ar      1 <0>        -0.1400
     12 C10         6.3413    0.2979   -0.0314 C.ar      1 <0>         0.2781
     13 N1          6.9544    1.5347    0.0645 N.pl3     1 <0>        -0.8430
     14 N2          7.3064   -3.3237   -0.2215 N.pl3     1 <0>        -0.0303
     15 O1          6.7212   -4.4996   -0.3179 O.2       1 <0>        -0.1498
     16 O2          8.6199   -3.2443   -0.1682 O.3       1 <0>        -0.1589
     17 H1          3.2613    4.2305    4.0963 H         1 <0>         0.1335
     18 H2          2.8984    4.0808    1.6595 H         1 <0>         0.1453
     19 H3          4.5501    2.2771    5.2285 H         1 <0>         0.1811
     20 H4          3.2538   -1.1378   -0.2313 H         1 <0>         0.1599
     21 H5          4.6297   -3.1502   -0.3085 H         1 <0>         0.1600
     22 H6          8.1836   -0.8017   -0.0279 H         1 <0>         0.1615
     23 H7          6.4167    2.3414    0.0960 H         1 <0>         0.4133
     24 H8          7.9218    1.5949    0.1001 H         1 <0>         0.4116
@<TRIPOS>BOND
     1    1    5 2
     2    1    2 1
     3    1   17 1
     4    2    3 2
     5    2   18 1
     6    3    4 1
     7    3    6 1
     8    4    5 1
     9    5   19 1
    10    6    7 1
    11    7   12 ar
    12    7    8 ar
    13    8    9 ar
    14    8   20 1
    15    9   10 ar
    16    9   21 1
    17   10   11 ar
    18   10   14 1
    19   11   12 ar
    20   11   22 1
    21   12   13 1
    22   13   23 1
    23   13   24 1
    24   14   15 2
    25   14   16 1
