@<TRIPOS>MOLECULE
ZINC02652250
   54    57     0     0     0
SMALL
USER_CHARGES
4-amino-3-[2-[1-(7,10-dioxabicyclo[4.4.0]deca-2,4,11-trien-8-ylmethyl)-2,5-dimethyl-pyrrol-3-yl]-2-oxo-ethyl]sulfanyl-6-methyl-1,2,4-triazin-5-one
@<TRIPOS>ATOM
      1 C1          4.9940    2.4489    2.6816 C.3       1 <0>        -0.0880
      2 C2          4.2418    3.5517    1.9822 C.2       1 <0>         0.0057
      3 C3          4.0871    4.8036    2.4448 C.2       1 <0>        -0.1433
      4 C4          3.2912    5.5206    1.4396 C.2       1 <0>        -0.2700
      5 C5          3.0395    4.6062    0.4341 C.2       1 <0>         0.1428
      6 N1          3.6091    3.4375    0.7782 N.pl3     1 <0>        -0.4313
      7 C6          3.5623    2.2156   -0.0286 C.3       1 <0>         0.1066
      8 C7          2.3345    1.3916    0.3645 C.3       1 <0>         0.0351
      9 H1          2.3426    1.2098    1.4392 H         1 <0>         0.0933
     10 C8          2.3470    0.0535   -0.3870 C.3       1 <0>         0.0299
     11 O1          1.1807   -0.6848   -0.0066 O.3       1 <0>        -0.3015
     12 C9          0.0021   -0.0041    0.0020 C.ar      1 <0>         0.0455
     13 C10        -1.1918   -0.7102    0.0041 C.ar      1 <0>        -0.1122
     14 C11        -2.3965   -0.0332    0.0157 C.ar      1 <0>        -0.1135
     15 C12        -2.4153    1.3492    0.0259 C.ar      1 <0>        -0.1126
     16 C13        -1.2294    2.0588    0.0190 C.ar      1 <0>        -0.1109
     17 C14        -0.0168    1.3855    0.0097 C.ar      1 <0>         0.0513
     18 O2          1.1429    2.0980    0.0024 O.3       1 <0>        -0.2965
     19 C15         2.2586    4.8717   -0.8272 C.3       1 <0>        -0.0949
     20 C16         2.8586    6.9189    1.4897 C.2       1 <0>         0.4480
     21 O3          2.2007    7.3833    0.5819 O.2       1 <0>        -0.4581
     22 C17         3.2304    7.7809    2.6685 C.3       1 <0>        -0.1570
     23 S1          2.5541    9.4438    2.4371 S.3       1 <0>         0.1041
     24 C18         3.1231   10.2141    3.9161 C.2       1 <0>         0.2853
     25 N2          3.8317    9.5175    4.7893 N.2       1 <0>        -0.3276
     26 N3          4.2727   10.0376    5.8783 N.2       1 <0>        -0.1763
     27 C19         4.0310   11.2905    6.1856 C.2       1 <0>         0.0086
     28 C20         3.2754   12.0885    5.2996 C.2       1 <0>         0.4866
     29 O4          3.0350   13.2560    5.5578 O.2       1 <0>        -0.5090
     30 N4          2.8257   11.5226    4.1560 N.am      1 <0>        -0.3378
     31 N5          2.0901   12.2466    3.2612 N.3       1 <0>        -0.5943
     32 C21         4.5560   11.8723    7.4728 C.3       1 <0>        -0.0833
     33 H2          6.0382    2.4668    2.3698 H         1 <0>         0.0750
     34 H3          4.9342    2.5956    3.7600 H         1 <0>         0.0853
     35 H4          4.5534    1.4866    2.4209 H         1 <0>         0.0614
     36 H5          4.4715    5.2033    3.3716 H         1 <0>         0.1520
     37 H6          4.4645    1.6296    0.1468 H         1 <0>         0.1200
     38 H7          3.5000    2.4795   -1.0843 H         1 <0>         0.1087
     39 H8          3.2416   -0.5095   -0.1205 H         1 <0>         0.1254
     40 H9          2.3332    0.2345   -1.4617 H         1 <0>         0.0826
     41 H10        -1.1798   -1.7901   -0.0036 H         1 <0>         0.1356
     42 H11        -3.3249   -0.5849    0.0171 H         1 <0>         0.1342
     43 H12        -3.3583    1.8754    0.0361 H         1 <0>         0.1343
     44 H13        -1.2469    3.1386    0.0268 H         1 <0>         0.1350
     45 H14         1.2046    4.6541   -0.6545 H         1 <0>         0.0868
     46 H15         2.3718    5.9179   -1.1112 H         1 <0>         0.0970
     47 H16         2.6346    4.2350   -1.6280 H         1 <0>         0.0642
     48 H17         2.8549    7.3817    3.5049 H         1 <0>         0.1209
     49 H18         4.3160    7.8381    2.7487 H         1 <0>         0.1361
     50 H19         1.9577   13.1933    3.5840 H         1 <0>         0.3910
     51 H20         2.5168   12.2325    2.3470 H         1 <0>         0.3672
     52 H21         3.8196   11.7286    8.2635 H         1 <0>         0.0875
     53 H22         5.4847   11.3712    7.7459 H         1 <0>         0.0890
     54 H23         4.7435   12.9378    7.3402 H         1 <0>         0.0863
@<TRIPOS>BOND
     1    1    2 1
     2    1   33 1
     3    1   34 1
     4    1   35 1
     5    2    6 1
     6    2    3 2
     7    3    4 1
     8    3   36 1
     9    4    5 2
    10    4   20 1
    11    5    6 1
    12    5   19 1
    13    6    7 1
    14    7    8 1
    15    7   37 1
    16    7   38 1
    17    8    9 1
    18    8   18 1
    19    8   10 1
    20   10   11 1
    21   10   39 1
    22   10   40 1
    23   11   12 1
    24   12   17 ar
    25   12   13 ar
    26   13   14 ar
    27   13   41 1
    28   14   15 ar
    29   14   42 1
    30   15   16 ar
    31   15   43 1
    32   16   17 ar
    33   16   44 1
    34   17   18 1
    35   19   45 1
    36   19   46 1
    37   19   47 1
    38   20   21 2
    39   20   22 1
    40   22   23 1
    41   22   48 1
    42   22   49 1
    43   23   24 1
    44   24   30 1
    45   24   25 2
    46   25   26 1
    47   26   27 2
    48   27   28 1
    49   27   32 1
    50   28   29 2
    51   28   30 am
    52   30   31 1
    53   31   50 1
    54   31   51 1
    55   32   52 1
    56   32   53 1
    57   32   54 1
