@<TRIPOS>MOLECULE
ZINC35705262
   64    67     0     0     0
SMALL
USER_CHARGES

@<TRIPOS>ATOM
      1 C1          0.0175    2.5886   -0.2110 C.3       1 <0>        -0.0934
      2 C2          0.0570    1.0847   -0.1228 C.2       1 <0>         0.3087
      3 C3         -1.1130    0.3783    0.0803 C.2       1 <0>        -0.4053
      4 C4         -1.0216   -1.1291    0.1611 C.3       1 <0>         0.2700
      5 H1         -1.6622   -1.5463   -0.6159 H         1 <0>         0.0729
      6 N1          0.3291   -1.7340    0.0144 N.pl3     1 <0>        -0.4999
      7 C5          0.6470   -3.0770    0.0537 C.2       1 <0>         0.2343
      8 C6          1.9450   -3.4188   -0.1025 C.2       1 <0>        -0.3008
      9 S1          2.7229   -1.8289   -0.3065 S.3       1 <0>         0.1402
     10 C7          1.3599   -0.8576   -0.1803 C.2       1 <0>         0.3391
     11 N2          1.2109    0.4494   -0.2459 N.2       1 <0>        -0.5963
     12 C8         -0.3897   -4.0988    0.2586 C.2       1 <0>        -0.4639
     13 C9         -0.0402   -5.3889    0.4242 C.2       1 <0>         0.5014
     14 O1          1.2561   -5.7621    0.2931 O.3       1 <0>        -0.7018
     15 N3         -1.0054   -6.3341    0.7283 N.pl3     1 <0>        -0.7247
     16 C10        -0.6124   -7.7153    1.0179 C.3       1 <0>         0.1228
     17 C11        -1.3750   -8.8317    0.3017 C.3       1 <0>        -0.2122
     18 C12        -1.6043   -8.5841    1.7940 C.3       1 <0>        -0.2074
     19 C13        -1.5783   -1.5569    1.4946 C.ar      1 <0>        -0.0516
     20 C14        -2.8310   -2.1381    1.5665 C.ar      1 <0>        -0.1021
     21 C15        -3.3445   -2.5315    2.7879 C.ar      1 <0>        -0.0931
     22 C16        -2.6081   -2.3452    3.9434 C.ar      1 <0>        -0.1991
     23 C17        -1.3526   -1.7636    3.8783 C.ar      1 <0>         0.0979
     24 C18        -0.8328   -1.3730    2.6475 C.ar      1 <0>         0.0939
     25 O2          0.4016   -0.8067    2.5778 O.3       1 <0>        -0.3146
     26 C19         0.4899    0.5927    2.8536 C.3       1 <0>         0.0365
     27 O3         -0.6271   -1.5797    5.0138 O.3       1 <0>        -0.3094
     28 C20        -1.2212   -2.0100    6.2401 C.3       1 <0>         0.0288
     29 C21        -2.3424    1.0363    0.2077 C.2       1 <0>         0.5395
     30 O4         -2.3808    2.2538    0.2469 O.2       1 <0>        -0.5487
     31 O5         -3.4864    0.3212    0.2870 O.3       1 <0>        -0.3466
     32 C22        -4.7042    1.0578    0.4157 C.3       1 <0>         0.1212
     33 C23        -4.8760    1.9750   -0.7968 C.3       1 <0>        -0.1812
     34 C24        -5.8830    0.0853    0.4905 C.3       1 <0>        -0.1387
     35 C25        -4.6575    1.9017    1.6910 C.3       1 <0>        -0.1795
     36 H2          1.0252    2.9695   -0.3768 H         1 <0>         0.0631
     37 H3         -0.6247    2.8873   -1.0395 H         1 <0>         0.0832
     38 H4         -0.3767    2.9969    0.7197 H         1 <0>         0.0868
     39 H5          2.3944   -4.4009   -0.1028 H         1 <0>         0.2359
     40 H6         -1.4316   -3.8149    0.2763 H         1 <0>         0.0867
     41 H7         -1.9417   -6.0816    0.7496 H         1 <0>         0.3854
     42 H8          0.4495   -7.8721    1.2074 H         1 <0>         0.1284
     43 H9         -2.1691   -8.5385   -0.3850 H         1 <0>         0.0874
     44 H10        -0.8148   -9.7232    0.0197 H         1 <0>         0.0905
     45 H11        -1.1949   -9.3127    2.4938 H         1 <0>         0.0922
     46 H12        -2.5492   -8.1279    2.0891 H         1 <0>         0.0873
     47 H13        -3.4095   -2.2847    0.6664 H         1 <0>         0.1247
     48 H14        -4.3233   -2.9851    2.8400 H         1 <0>         0.1211
     49 H15        -3.0120   -2.6529    4.8966 H         1 <0>         0.1239
     50 H16        -0.2052    1.1340    2.2117 H         1 <0>         0.0502
     51 H17         0.2363    0.7739    3.8981 H         1 <0>         0.0370
     52 H18         1.5058    0.9375    2.6612 H         1 <0>         0.0860
     53 H19        -2.1558   -1.4722    6.3994 H         1 <0>         0.0498
     54 H20        -1.4217   -3.0802    6.1908 H         1 <0>         0.0533
     55 H21        -0.5392   -1.8057    7.0656 H         1 <0>         0.0955
     56 H22        -4.9092    1.3738   -1.7054 H         1 <0>         0.0550
     57 H23        -5.8048    2.5368   -0.6987 H         1 <0>         0.0593
     58 H24        -4.0362    2.6679   -0.8501 H         1 <0>         0.0864
     59 H25        -5.7606   -0.5682    1.3543 H         1 <0>         0.0638
     60 H26        -6.8118    0.6471    0.5886 H         1 <0>         0.0691
     61 H27        -5.9162   -0.5160   -0.4181 H         1 <0>         0.0625
     62 H28        -3.8177    2.5946    1.6377 H         1 <0>         0.0853
     63 H29        -5.5864    2.4635    1.7891 H         1 <0>         0.0588
     64 H30        -4.5352    1.2483    2.5548 H         1 <0>         0.0543
@<TRIPOS>BOND
     1    1    2 1
     2    1   36 1
     3    1   37 1
     4    1   38 1
     5    2   11 1
     6    2    3 2
     7    3    4 1
     8    3   29 1
     9    4    5 1
    10    4    6 1
    11    4   19 1
    12    6   10 1
    13    6    7 1
    14    7    8 2
    15    7   12 1
    16    8    9 1
    17    8   39 1
    18    9   10 1
    19   10   11 2
    20   12   13 2
    21   12   40 1
    22   13   14 1
    23   13   15 1
    24   15   16 1
    25   15   41 1
    26   16   18 1
    27   16   17 1
    28   16   42 1
    29   17   18 1
    30   17   43 1
    31   17   44 1
    32   18   45 1
    33   18   46 1
    34   19   24 ar
    35   19   20 ar
    36   20   21 ar
    37   20   47 1
    38   21   22 ar
    39   21   48 1
    40   22   23 ar
    41   22   49 1
    42   23   24 ar
    43   23   27 1
    44   24   25 1
    45   25   26 1
    46   26   50 1
    47   26   51 1
    48   26   52 1
    49   27   28 1
    50   28   53 1
    51   28   54 1
    52   28   55 1
    53   29   30 2
    54   29   31 1
    55   31   32 1
    56   32   33 1
    57   32   34 1
    58   32   35 1
    59   33   56 1
    60   33   57 1
    61   33   58 1
    62   34   59 1
    63   34   60 1
    64   34   61 1
    65   35   62 1
    66   35   63 1
    67   35   64 1
