@<TRIPOS>MOLECULE
ZINC03598636
   47    50     0     0     0
SMALL
USER_CHARGES
N-ethyl-N-(1-naphthyl)-2-(4-nitro-1,3-dioxo-isoindolin-2-yl)-acetamide
@<TRIPOS>ATOM
      1 C1          2.1978    1.3205    2.6241 C.3       1 <0>        -0.1842
      2 C2          0.9621    0.4193    2.5843 C.3       1 <0>         0.0994
      3 N1         -0.2416    1.2460    2.4658 N.am      1 <0>        -0.5664
      4 C3         -0.8950    1.6962    3.6144 C.ar      1 <0>         0.1433
      5 C4         -1.8943    0.9396    4.1876 C.ar      1 <0>        -0.0989
      6 C5         -2.5522    1.3795    5.3323 C.ar      1 <0>        -0.1106
      7 C6         -2.2282    2.5656    5.9173 C.ar      1 <0>        -0.0961
      8 C7         -1.2149    3.3668    5.3645 C.ar      1 <0>        -0.0476
      9 C8         -0.5345    2.9272    4.2022 C.ar      1 <0>        -0.0413
     10 C9          0.4740    3.7312    3.6481 C.ar      1 <0>        -0.1067
     11 C10         0.7915    4.9164    4.2383 C.ar      1 <0>        -0.1124
     12 C11         0.1265    5.3473    5.3845 C.ar      1 <0>        -0.1144
     13 C12        -0.8595    4.5961    5.9465 C.ar      1 <0>        -0.1038
     14 C13        -0.7181    1.5718    1.2479 C.2       1 <0>         0.5047
     15 O1         -1.7146    2.2562    1.1498 O.2       1 <0>        -0.5078
     16 C14        -0.0127    1.0858    0.0080 C.3       1 <0>         0.0953
     17 N2         -0.7213    1.5711   -1.1789 N.am      1 <0>        -0.5601
     18 C15        -0.4611    2.7373   -1.7969 C.2       1 <0>         0.5847
     19 O2          0.3847    3.5428   -1.4640 O.2       1 <0>        -0.4446
     20 C16        -1.3772    2.8746   -2.9488 C.ar      1 <0>        -0.1294
     21 C17        -1.5676    3.8402   -3.9242 C.ar      1 <0>        -0.0001
     22 C18        -2.5425    3.6562   -4.8922 C.ar      1 <0>        -0.0883
     23 C19        -3.3255    2.5171   -4.8905 C.ar      1 <0>        -0.0368
     24 C20        -3.1464    1.5427   -3.9210 C.ar      1 <0>         0.0211
     25 C21        -2.1753    1.7128   -2.9473 C.ar      1 <0>        -0.0757
     26 C22        -1.7138    0.9066   -1.7976 C.2       1 <0>         0.5672
     27 O3         -2.1582   -0.1738   -1.4656 O.2       1 <0>        -0.3987
     28 N3         -3.9885    0.3254   -3.9262 N.pl3     1 <0>         0.0110
     29 O4         -4.8410    0.1783   -4.7836 O.2       1 <0>        -0.1559
     30 O5         -3.8289   -0.5291   -3.0731 O.3       1 <0>        -0.1045
     31 H1          2.1314    1.9905    3.4813 H         1 <0>         0.0703
     32 H2          3.0934    0.7054    2.7123 H         1 <0>         0.0775
     33 H3          2.2491    1.9076    1.7071 H         1 <0>         0.0598
     34 H4          0.9108   -0.1678    3.5012 H         1 <0>         0.0914
     35 H5          1.0285   -0.2507    1.7271 H         1 <0>         0.0872
     36 H6         -2.1700   -0.0054    3.7432 H         1 <0>         0.1269
     37 H7         -3.3323    0.7699    5.7639 H         1 <0>         0.1304
     38 H8         -2.7495    2.8901    6.8058 H         1 <0>         0.1316
     39 H9          0.9979    3.4096    2.7601 H         1 <0>         0.1256
     40 H10         1.5704    5.5313    3.8121 H         1 <0>         0.1238
     41 H11         0.3979    6.2912    5.8339 H         1 <0>         0.1252
     42 H12        -1.3661    4.9425    6.8352 H         1 <0>         0.1302
     43 H13         0.0021   -0.0041    0.0020 H         1 <0>         0.1354
     44 H14         1.0099    1.4631    0.0003 H         1 <0>         0.1336
     45 H15        -0.9592    4.7325   -3.9300 H         1 <0>         0.1648
     46 H16        -2.6916    4.4083   -5.6528 H         1 <0>         0.1699
     47 H17        -4.0824    2.3855   -5.6496 H         1 <0>         0.1734
@<TRIPOS>BOND
     1    1    2 1
     2    1   31 1
     3    1   32 1
     4    1   33 1
     5    2    3 1
     6    2   34 1
     7    2   35 1
     8    3    4 1
     9    3   14 am
    10    4    9 ar
    11    4    5 ar
    12    5    6 ar
    13    5   36 1
    14    6    7 ar
    15    6   37 1
    16    7    8 ar
    17    7   38 1
    18    8   13 ar
    19    8    9 ar
    20    9   10 ar
    21   10   11 ar
    22   10   39 1
    23   11   12 ar
    24   11   40 1
    25   12   13 ar
    26   12   41 1
    27   13   42 1
    28   14   15 2
    29   14   16 1
    30   16   17 1
    31   16   43 1
    32   16   44 1
    33   17   26 am
    34   17   18 am
    35   18   19 2
    36   18   20 1
    37   20   25 ar
    38   20   21 ar
    39   21   22 ar
    40   21   45 1
    41   22   23 ar
    42   22   46 1
    43   23   24 ar
    44   23   47 1
    45   24   25 ar
    46   24   28 1
    47   25   26 1
    48   26   27 2
    49   28   29 2
    50   28   30 1
