@<TRIPOS>MOLECULE
ZINC04756605
   68    72     0     0     0
SMALL
USER_CHARGES
2-(3,4-dimethoxyphenyl)-N-(2,5-dioxabicyclo[4.4.0]deca-7,9,11-trien-8-yl)-1-(4-methoxyphenyl)-6-oxo-piperidine-3-carboxamide
@<TRIPOS>ATOM
      1 C1        -10.9726   -2.0495    0.7452 C.3       1 <0>         0.0260
      2 O1         -9.6214   -2.2253    1.1757 O.3       1 <0>        -0.3161
      3 C2         -8.8251   -1.1232    1.1754 C.ar      1 <0>         0.1326
      4 C3         -7.5025   -1.2235    1.5817 C.ar      1 <0>        -0.1451
      5 C4         -6.6933   -0.1045    1.5821 C.ar      1 <0>        -0.0471
      6 C5         -7.2036    1.1210    1.1754 C.ar      1 <0>         0.1088
      7 C6         -8.5288    1.2216    0.7735 C.ar      1 <0>        -0.0805
      8 C7         -9.3355    0.1008    0.7685 C.ar      1 <0>        -0.2036
      9 N1         -6.3833    2.2568    1.1760 N.am      1 <0>        -0.5420
     10 C8         -5.7517    2.6440   -0.0792 C.3       1 <0>         0.2123
     11 H1         -6.4799    3.1602   -0.7048 H         1 <0>         0.0993
     12 C9         -4.5636    3.5705    0.1829 C.3       1 <0>        -0.1254
     13 H2         -4.2049    3.9845   -0.7595 H         1 <0>         0.1217
     14 C10        -5.0218    4.7081    1.1034 C.3       1 <0>        -0.1149
     15 C11        -5.3425    4.1181    2.4789 C.3       1 <0>        -0.1386
     16 C12        -6.2293    2.9159    2.3251 C.2       1 <0>         0.5271
     17 O2         -6.8384    2.5236    3.2979 O.2       1 <0>        -0.5340
     18 C13        -3.4558    2.7960    0.8492 C.2       1 <0>         0.5122
     19 O3         -3.6874    1.7159    1.3503 O.2       1 <0>        -0.4848
     20 N2         -2.2079    3.3034    0.8882 N.am      1 <0>        -0.6757
     21 C14        -1.1594    2.5440    1.4237 C.ar      1 <0>         0.1464
     22 C15         0.1147    2.6382    0.8799 C.ar      1 <0>        -0.1416
     23 C16         1.1473    1.8849    1.4034 C.ar      1 <0>        -0.0936
     24 C17         0.9180    1.0409    2.4801 C.ar      1 <0>         0.0392
     25 C18        -0.3549    0.9496    3.0310 C.ar      1 <0>         0.0715
     26 C19        -1.3925    1.7009    2.5009 C.ar      1 <0>        -0.1126
     27 O4         -0.5983    0.1302    4.0903 O.3       1 <0>        -0.3032
     28 C20         0.3751   -0.8857    4.3551 C.3       1 <0>         0.0197
     29 C21         1.7679   -0.2442    4.2925 C.3       1 <0>         0.0208
     30 O5          1.9490    0.3069    2.9835 O.3       1 <0>        -0.3065
     31 C22        -5.2714    1.4090   -0.7969 C.ar      1 <0>        -0.0942
     32 C23        -6.1573    0.3849   -1.0757 C.ar      1 <0>        -0.0986
     33 C24        -5.7217   -0.7501   -1.7338 C.ar      1 <0>        -0.1707
     34 C25        -4.3945   -0.8630   -2.1159 C.ar      1 <0>         0.1078
     35 C26        -3.5029    0.1680   -1.8356 C.ar      1 <0>         0.0998
     36 C27        -3.9472    1.3050   -1.1799 C.ar      1 <0>        -0.1497
     37 O6         -2.1994    0.0619   -2.2086 O.3       1 <0>        -0.3037
     38 C28        -1.3416    1.1588   -1.8880 C.3       1 <0>         0.0238
     39 O7         -3.9644   -1.9786   -2.7638 O.3       1 <0>        -0.3064
     40 C29        -4.9352   -2.9958   -3.0184 C.3       1 <0>         0.0262
     41 H3        -11.4699   -1.3287    1.3943 H         1 <0>         0.0565
     42 H4        -10.9821   -1.6815   -0.2808 H         1 <0>         0.0561
     43 H5        -11.4966   -3.0040    0.7937 H         1 <0>         0.1008
     44 H6         -7.1057   -2.1768    1.8981 H         1 <0>         0.1324
     45 H7         -5.6638   -0.1826    1.8991 H         1 <0>         0.1338
     46 H8         -8.9275    2.1754    0.4609 H         1 <0>         0.1269
     47 H9        -10.3650    0.1780    0.4517 H         1 <0>         0.1323
     48 H10        -4.2261    5.4471    1.1975 H         1 <0>         0.0897
     49 H11        -5.9134    5.1789    0.6891 H         1 <0>         0.0929
     50 H12        -4.4159    3.8238    2.9716 H         1 <0>         0.0996
     51 H13        -5.8524    4.8674    3.0844 H         1 <0>         0.1097
     52 H14        -2.0356    4.1944    0.5456 H         1 <0>         0.4128
     53 H15         0.2976    3.2980    0.0446 H         1 <0>         0.1361
     54 H16         2.1367    1.9565    0.9763 H         1 <0>         0.1404
     55 H17        -2.3825    1.6302    2.9267 H         1 <0>         0.1501
     56 H18         0.2988   -1.6727    3.6048 H         1 <0>         0.0791
     57 H19         0.2080   -1.3054    5.3471 H         1 <0>         0.1241
     58 H20         2.5298   -1.0003    4.4816 H         1 <0>         0.1237
     59 H21         1.8426    0.5474    5.0381 H         1 <0>         0.0786
     60 H22        -7.1920    0.4716   -0.7785 H         1 <0>         0.1365
     61 H23        -6.4156   -1.5489   -1.9499 H         1 <0>         0.1339
     62 H24        -3.2581    2.1082   -0.9645 H         1 <0>         0.1296
     63 H25        -1.7118    2.0630   -2.3712 H         1 <0>         0.0492
     64 H26        -1.3262    1.3044   -0.8078 H         1 <0>         0.0579
     65 H27        -0.3323    0.9458   -2.2402 H         1 <0>         0.0999
     66 H28        -4.4616   -3.8279   -3.5393 H         1 <0>         0.1006
     67 H29        -5.3496   -3.3473   -2.0735 H         1 <0>         0.0553
     68 H30        -5.7351   -2.5882   -3.6366 H         1 <0>         0.0547
@<TRIPOS>BOND
     1    1    2 1
     2    1   41 1
     3    1   42 1
     4    1   43 1
     5    2    3 1
     6    3    8 ar
     7    3    4 ar
     8    4    5 ar
     9    4   44 1
    10    5    6 ar
    11    5   45 1
    12    6    7 ar
    13    6    9 1
    14    7    8 ar
    15    7   46 1
    16    8   47 1
    17    9   16 am
    18    9   10 1
    19   10   11 1
    20   10   12 1
    21   10   31 1
    22   12   13 1
    23   12   14 1
    24   12   18 1
    25   14   15 1
    26   14   48 1
    27   14   49 1
    28   15   16 1
    29   15   50 1
    30   15   51 1
    31   16   17 2
    32   18   19 2
    33   18   20 am
    34   20   21 1
    35   20   52 1
    36   21   26 ar
    37   21   22 ar
    38   22   23 ar
    39   22   53 1
    40   23   24 ar
    41   23   54 1
    42   24   30 1
    43   24   25 ar
    44   25   26 ar
    45   25   27 1
    46   26   55 1
    47   27   28 1
    48   28   29 1
    49   28   56 1
    50   28   57 1
    51   29   30 1
    52   29   58 1
    53   29   59 1
    54   31   36 ar
    55   31   32 ar
    56   32   33 ar
    57   32   60 1
    58   33   34 ar
    59   33   61 1
    60   34   35 ar
    61   34   39 1
    62   35   36 ar
    63   35   37 1
    64   36   62 1
    65   37   38 1
    66   38   63 1
    67   38   64 1
    68   38   65 1
    69   39   40 1
    70   40   66 1
    71   40   67 1
    72   40   68 1
