@<TRIPOS>MOLECULE
ZINC67304687
   41    44     0     0     0
SMALL
USER_CHARGES

@<TRIPOS>ATOM
      1 C1          0.1300    1.6476   -2.4127 C.ar      1 <0>        -0.0869
      2 C2          1.3015    2.3248   -2.1346 C.ar      1 <0>        -0.0754
      3 C3          2.4782    1.6178   -1.9295 C.ar      1 <0>         0.1386
      4 C4          2.4740    0.2313   -2.0046 C.ar      1 <0>        -0.0447
      5 C5          1.2997   -0.4401   -2.2830 C.ar      1 <0>        -0.0262
      6 C6          0.1288    0.2670   -2.4868 C.ar      1 <0>        -0.0482
      7 N1          1.2944   -1.9181   -2.3632 N.pl3     1 <0>         0.0287
      8 O1          2.3176   -2.5369   -2.1851 O.2       1 <0>        -0.1430
      9 O2          0.2667   -2.5065   -2.6068 O.3       1 <0>        -0.1411
     10 N2          3.6691    2.3024   -1.6475 N.pl3     1 <0>        -0.3166
     11 C7          3.8062    3.6310   -1.4464 C.2       1 <0>         0.1052
     12 C8          5.1313    3.8589   -1.2041 C.2       1 <0>        -0.0935
     13 N3          5.7823    2.6841   -1.2587 N.2       1 <0>        -0.1850
     14 N4          4.9461    1.7390   -1.5140 N.2       1 <0>        -0.0394
     15 C9          5.7442    5.1722   -0.9296 C.2       1 <0>         0.6177
     16 O3          5.0532    6.1725   -0.9053 O.2       1 <0>        -0.5240
     17 N5          7.0701    5.2635   -0.7056 N.am      1 <0>        -0.7125
     18 C10         7.6788    6.5679   -0.4329 C.3       1 <0>         0.2039
     19 C11         9.1607    6.3960   -0.2194 C.2       1 <0>         0.2688
     20 N6          9.8041    5.2744   -0.2733 N.2       1 <0>        -0.2688
     21 N7         11.1578    5.5353   -0.0198 N.pl3     1 <0>        -0.4644
     22 C12        11.2786    6.8636    0.1856 C.2       1 <0>         0.4692
     23 N8         10.0503    7.4045    0.0583 N.pl3     1 <0>        -0.4545
     24 C13         9.7203    8.8251    0.1963 C.3       1 <0>         0.0333
     25 C14        10.8739    9.8280    0.1295 C.3       1 <0>        -0.1848
     26 C15        10.1880    9.5389    1.4662 C.3       1 <0>        -0.1627
     27 S1         12.7264    7.7075    0.5359 S.2       1 <0>        -0.5487
     28 H1         -0.7869    2.1969   -2.5679 H         1 <0>         0.1665
     29 H2          1.3018    3.4033   -2.0771 H         1 <0>         0.1569
     30 H3          3.3881   -0.3214   -1.8459 H         1 <0>         0.1724
     31 H4         -0.7883   -0.2602   -2.7043 H         1 <0>         0.1667
     32 H5          3.0199    4.3708   -1.4724 H         1 <0>         0.2150
     33 H6          7.6213    4.4656   -0.7249 H         1 <0>         0.4236
     34 H7          7.5085    7.2326   -1.2798 H         1 <0>         0.1160
     35 H8          7.2302    6.9981    0.4626 H         1 <0>         0.1172
     36 H9          8.7636    9.1290   -0.2285 H         1 <0>         0.1549
     37 H10        11.8783    9.4308   -0.0172 H         1 <0>         0.1660
     38 H11        10.6762   10.7919   -0.3395 H         1 <0>         0.1065
     39 H12         9.5391   10.3126    1.8766 H         1 <0>         0.1125
     40 H13        10.7412    8.9515    2.1990 H         1 <0>         0.1086
     41 H14        11.8746    4.8823    0.0040 H         1 <0>         0.4721
@<TRIPOS>BOND
     1    1    6 ar
     2    1    2 ar
     3    1   28 1
     4    2    3 ar
     5    2   29 1
     6    3    4 ar
     7    3   10 1
     8    4    5 ar
     9    4   30 1
    10    5    6 ar
    11    5    7 1
    12    6   31 1
    13    7    8 2
    14    7    9 1
    15   10   14 1
    16   10   11 1
    17   11   12 2
    18   11   32 1
    19   12   13 1
    20   12   15 1
    21   13   14 2
    22   15   16 2
    23   15   17 am
    24   17   18 1
    25   17   33 1
    26   18   34 1
    27   18   35 1
    28   18   19 1
    29   19   23 1
    30   19   20 2
    31   20   21 1
    32   21   22 1
    33   21   41 1
    34   22   27 2
    35   22   23 1
    36   23   24 1
    37   24   26 1
    38   24   25 1
    39   24   36 1
    40   25   26 1
    41   25   37 1
    42   25   38 1
    43   26   39 1
    44   26   40 1
