@<TRIPOS>MOLECULE
ZINC63384450
   62    68     0     0     0
SMALL
USER_CHARGES

@<TRIPOS>ATOM
      1 C1         -0.0163    1.3482    0.0095 C.ar      1 <0>        -0.1541
      2 C2          1.1658    2.1014    0.0022 C.ar      1 <0>         0.0532
      3 C3          2.3912    1.5352   -0.0125 C.ar      1 <0>        -0.2101
      4 C4          2.5288    0.1198   -0.0218 C.ar      1 <0>         0.3262
      5 N1          3.5868   -0.6543   -0.0369 N.pl3     1 <0>        -0.5870
      6 C5          3.1432   -2.0528   -0.0408 C.3       1 <0>         0.0600
      7 C6          1.6315   -2.0084   -0.0255 C.2       1 <0>         0.0804
      8 C7          1.2951   -0.6984   -0.0144 C.ar      1 <0>        -0.1764
      9 C8          0.0021   -0.0041    0.0020 C.ar      1 <0>        -0.0081
     10 C9          0.6905   -3.1856   -0.0239 C.3       1 <0>        -0.0895
     11 C10         0.4565   -3.6534   -1.4617 C.3       1 <0>         0.0851
     12 H1          0.1149   -2.8226   -2.0791 H         1 <0>         0.0915
     13 C11        -0.5727   -4.8030   -1.4914 C.3       1 <0>        -0.1231
     14 H2         -1.5876   -4.4520   -1.6785 H         1 <0>         0.1519
     15 C12        -0.0576   -5.7721   -2.5921 C.3       1 <0>        -0.1051
     16 H3         -0.7936   -5.9528   -3.3755 H         1 <0>         0.1493
     17 C13         0.2891   -7.0241   -1.8179 C.2       1 <0>         0.5360
     18 O1          0.7293   -8.0458   -2.2994 O.2       1 <0>        -0.4448
     19 N2          0.0353   -6.8287   -0.5189 N.am      1 <0>        -0.5588
     20 C14        -0.4607   -5.6069   -0.2163 C.2       1 <0>         0.5462
     21 O2         -0.7647   -5.2131    0.8891 O.2       1 <0>        -0.4578
     22 C15         0.2681   -7.8578    0.4974 C.3       1 <0>         0.0901
     23 C16         1.6926   -7.7258    1.0399 C.3       1 <0>         0.0697
     24 H4          2.4057   -7.7504    0.2159 H         1 <0>         0.0922
     25 C17         1.9878   -8.8793    2.0226 C.3       1 <0>        -0.1492
     26 C18         2.8091   -8.1659    3.1310 C.3       1 <0>        -0.1557
     27 C19         2.1417   -6.7676    3.1377 C.3       1 <0>         0.0510
     28 O3          1.8258   -6.4955    1.7612 O.3       1 <0>        -0.3736
     29 C20         1.2187   -5.1075   -3.1230 C.3       1 <0>         0.1295
     30 N3          1.7026   -4.2380   -2.0248 N.3       1 <0>        -0.6253
     31 C21         0.9527   -4.3371   -4.3851 C.ar      1 <0>        -0.1906
     32 C22         0.1209   -3.2845   -4.6955 C.ar      1 <0>        -0.0561
     33 C23         0.0960   -2.7782   -5.9828 C.ar      1 <0>        -0.1397
     34 C24         0.9085   -3.3316   -6.9557 C.ar      1 <0>        -0.0640
     35 C25         1.7441   -4.3854   -6.6488 C.ar      1 <0>        -0.1368
     36 C26         1.7759   -4.9010   -5.3554 C.ar      1 <0>         0.1663
     37 N4          2.5246   -5.9443   -4.8063 N.am      1 <0>        -0.6629
     38 C27         2.2566   -6.1287   -3.4989 C.2       1 <0>         0.5432
     39 O4          2.7555   -6.9574   -2.7672 O.2       1 <0>        -0.4434
     40 H5         -0.9665    1.8612    0.0259 H         1 <0>         0.1571
     41 H6          1.0933    3.1789    0.0083 H         1 <0>         0.1595
     42 H7          3.2717    2.1606   -0.0175 H         1 <0>         0.1590
     43 H8          3.4952   -2.5561   -0.9413 H         1 <0>         0.1694
     44 H9          3.5129   -2.5667    0.8465 H         1 <0>         0.1761
     45 H10        -0.9210   -0.5647    0.0081 H         1 <0>         0.1611
     46 H11         1.1268   -3.9987    0.5563 H         1 <0>         0.1333
     47 H12        -0.2596   -2.8905    0.4214 H         1 <0>         0.1289
     48 H13        -0.4443   -7.7313    1.3125 H         1 <0>         0.1001
     49 H14         0.1390   -8.8442    0.0518 H         1 <0>         0.1054
     50 H15         1.0630   -9.2894    2.4284 H         1 <0>         0.0821
     51 H16         2.5800   -9.6573    1.5409 H         1 <0>         0.0887
     52 H17         2.6869   -8.6641    4.0927 H         1 <0>         0.0871
     53 H18         3.8619   -8.0974    2.8572 H         1 <0>         0.0793
     54 H19         1.2327   -6.7851    3.7389 H         1 <0>         0.0626
     55 H20         2.8354   -6.0191    3.5209 H         1 <0>         0.0825
     56 H21         2.3119   -3.5167   -2.3803 H         1 <0>         0.3477
     57 H22        -0.5126   -2.8544   -3.9339 H         1 <0>         0.1261
     58 H23        -0.5564   -1.9530   -6.2275 H         1 <0>         0.1356
     59 H24         0.8883   -2.9370   -7.9608 H         1 <0>         0.1384
     60 H25         2.3755   -4.8121   -7.4141 H         1 <0>         0.1339
     61 H26         3.1633   -6.4746   -5.3080 H         1 <0>         0.4220
     62 H27         4.5087   -0.3528   -0.0446 H         1 <0>         0.4547
@<TRIPOS>BOND
     1    1    9 ar
     2    1    2 ar
     3    1   40 1
     4    2    3 ar
     5    2   41 1
     6    3    4 ar
     7    3   42 1
     8    4    8 ar
     9    4    5 2
    10    5    6 1
    11    5   62 1
    12    6    7 1
    13    6   43 1
    14    6   44 1
    15    7    8 2
    16    7   10 1
    17    8    9 ar
    18    9   45 1
    19   10   11 1
    20   10   46 1
    21   10   47 1
    22   11   12 1
    23   11   30 1
    24   11   13 1
    25   13   14 1
    26   13   20 1
    27   13   15 1
    28   15   16 1
    29   15   17 1
    30   15   29 1
    31   17   18 2
    32   17   19 am
    33   19   20 am
    34   19   22 1
    35   20   21 2
    36   22   23 1
    37   22   48 1
    38   22   49 1
    39   23   24 1
    40   23   28 1
    41   23   25 1
    42   25   26 1
    43   25   50 1
    44   25   51 1
    45   26   27 1
    46   26   52 1
    47   26   53 1
    48   27   28 1
    49   27   54 1
    50   27   55 1
    51   29   38 1
    52   29   30 1
    53   29   31 1
    54   30   56 1
    55   31   36 ar
    56   31   32 ar
    57   32   33 ar
    58   32   57 1
    59   33   34 ar
    60   33   58 1
    61   34   35 ar
    62   34   59 1
    63   35   36 ar
    64   35   60 1
    65   36   37 1
    66   37   38 am
    67   37   61 1
    68   38   39 2
