@<TRIPOS>MOLECULE
ZINC46496467
   43    45     0     0     0
SMALL
USER_CHARGES

@<TRIPOS>ATOM
      1 C1         -0.0164    1.3618    0.0095 C.ar      1 <0>        -0.1289
      2 C2          1.1675    2.0858    0.0021 C.ar      1 <0>        -0.0884
      3 C3          2.3834    1.4366   -0.0135 C.ar      1 <0>        -0.1265
      4 C4          2.4219    0.0488   -0.0213 C.ar      1 <0>         0.0557
      5 C5          1.2229   -0.6838   -0.0133 C.ar      1 <0>         0.0441
      6 C6          0.0021   -0.0041    0.0020 C.ar      1 <0>        -0.0560
      7 N1          1.5627   -1.9984   -0.0238 N.2       1 <0>        -0.4901
      8 C7          2.8584   -2.1152   -0.0373 C.2       1 <0>         0.2632
      9 N2          3.4388   -0.8848   -0.0364 N.pl3     1 <0>        -0.4932
     10 C8          4.8763   -0.6028   -0.0496 C.3       1 <0>         0.1061
     11 C9          5.3672   -0.3886    1.3836 C.3       1 <0>         0.1923
     12 H1          5.0993   -1.2522    1.9923 H         1 <0>         0.1133
     13 C10         6.8648   -0.2204    1.3818 C.ar      1 <0>        -0.1174
     14 C11         7.4223    1.0005    1.0505 C.ar      1 <0>        -0.0725
     15 C12         8.7955    1.1560    1.0490 C.ar      1 <0>        -0.1526
     16 C13         9.6130    0.0884    1.3793 C.ar      1 <0>         0.1081
     17 C14         9.0534   -1.1339    1.7109 C.ar      1 <0>        -0.1504
     18 C15         7.6798   -1.2856    1.7169 C.ar      1 <0>        -0.0656
     19 F1         10.9555    0.2392    1.3777 F         1 <0>        -0.1362
     20 N3          4.7414    0.8138    1.9395 N.am      1 <0>        -0.7354
     21 C16         4.5989    0.9439    3.2734 C.2       1 <0>         0.7216
     22 O1          4.9897    0.0635    4.0153 O.2       1 <0>        -0.5598
     23 N4          4.0232    2.0500    3.7848 N.am      1 <0>        -0.5362
     24 N5          3.5730    3.0645    2.9299 N.am      1 <0>        -0.5389
     25 C17         2.9973    4.1707    3.4414 C.2       1 <0>         0.7198
     26 O2          2.6066    5.0511    2.6994 O.2       1 <0>        -0.5696
     27 N6          2.8548    4.3008    4.7752 N.am      1 <0>        -0.8587
     28 H2         -0.9620    1.8835    0.0259 H         1 <0>         0.1311
     29 H3          1.1359    3.1654    0.0082 H         1 <0>         0.1336
     30 H4          3.3018    2.0048   -0.0199 H         1 <0>         0.1086
     31 H5         -0.9252   -0.5577    0.0076 H         1 <0>         0.1299
     32 H6          3.3951   -3.0524   -0.0473 H         1 <0>         0.2149
     33 H7          5.4076   -1.4446   -0.4937 H         1 <0>         0.1220
     34 H8          5.0648    0.2962   -0.6364 H         1 <0>         0.0990
     35 H9          6.7845    1.8330    0.7925 H         1 <0>         0.1266
     36 H10         9.2308    2.1098    0.7898 H         1 <0>         0.1378
     37 H11         9.6901   -1.9674    1.9684 H         1 <0>         0.1402
     38 H12         7.2430   -2.2377    1.9798 H         1 <0>         0.1373
     39 H13         4.4297    1.5162    1.3476 H         1 <0>         0.3912
     40 H14         3.9207    2.1437    4.7448 H         1 <0>         0.4337
     41 H15         3.6756    2.9709    1.9699 H         1 <0>         0.4275
     42 H16         3.1665    3.5984    5.3671 H         1 <0>         0.3953
     43 H17         2.4405    5.0969    5.1433 H         1 <0>         0.4236
@<TRIPOS>BOND
     1    1    6 ar
     2    1    2 ar
     3    1   28 1
     4    2    3 ar
     5    2   29 1
     6    3    4 ar
     7    3   30 1
     8    4    9 1
     9    4    5 ar
    10    5    6 ar
    11    5    7 1
    12    6   31 1
    13    7    8 2
    14    8    9 1
    15    8   32 1
    16    9   10 1
    17   10   11 1
    18   10   33 1
    19   10   34 1
    20   11   12 1
    21   11   13 1
    22   11   20 1
    23   13   18 ar
    24   13   14 ar
    25   14   15 ar
    26   14   35 1
    27   15   16 ar
    28   15   36 1
    29   16   17 ar
    30   16   19 1
    31   17   18 ar
    32   17   37 1
    33   18   38 1
    34   20   21 am
    35   20   39 1
    36   21   22 2
    37   21   23 am
    38   23   24 1
    39   23   40 1
    40   24   25 am
    41   24   41 1
    42   25   26 2
    43   25   27 am
    44   27   42 1
    45   27   43 1
