@<TRIPOS>MOLECULE
ZINC44021598
   60    63     0     0     0
SMALL
USER_CHARGES

@<TRIPOS>ATOM
      1 C1         -0.2934    0.1721   -1.9722 C.3       1 <0>         0.1172
      2 N1         -0.4943   -1.2774   -2.0425 N.pl3     1 <0>        -0.6812
      3 C2          0.6270   -2.1566   -2.3829 C.3       1 <0>         0.1185
      4 C3         -1.7576   -1.8222   -1.7843 C.ar      1 <0>         0.1301
      5 C4         -2.6607   -2.0027   -2.8207 C.ar      1 <0>        -0.0832
      6 C5         -3.9132   -2.5398   -2.5740 C.ar      1 <0>        -0.1317
      7 C6         -4.2749   -2.9017   -1.2945 C.ar      1 <0>        -0.0351
      8 C7         -3.3731   -2.7275   -0.2403 C.ar      1 <0>        -0.1809
      9 C8         -2.1071   -2.1893   -0.4860 C.ar      1 <0>         0.1587
     10 O1         -1.2262   -2.0203    0.5333 O.3       1 <0>        -0.4706
     11 C9         -3.7681   -3.1241    1.1276 C.2       1 <0>         0.4236
     12 O2         -2.9294   -3.2898    1.9950 O.2       1 <0>        -0.4086
     13 C10        -5.1550   -3.3078    1.4086 C.2       1 <0>        -0.2297
     14 C11        -5.5113   -3.7384    2.6266 C.2       1 <0>         0.1574
     15 C12        -6.9273   -4.0103    3.0204 C.3       1 <0>         0.1122
     16 C13        -7.8875   -3.2820    2.0709 C.3       1 <0>        -0.0838
     17 H1         -7.7924   -2.2055    2.2131 H         1 <0>         0.1099
     18 C14        -7.5061   -3.6422    0.6347 C.3       1 <0>        -0.1206
     19 C15        -6.1525   -3.0015    0.3271 C.3       1 <0>        -0.0253
     20 H2         -6.2835   -1.9209    0.2697 H         1 <0>         0.0854
     21 C16        -5.6388   -3.4821   -1.0267 C.3       1 <0>        -0.0741
     22 C17        -9.3158   -3.7128    2.3887 C.3       1 <0>         0.0350
     23 H3         -9.4343   -4.7708    2.1548 H         1 <0>         0.1563
     24 C18        -9.6148   -3.4881    3.8455 C.2       1 <0>         0.3152
     25 C19        -8.6302   -3.3894    4.7985 C.2       1 <0>        -0.4709
     26 C20        -7.2164   -3.5043    4.4165 C.2       1 <0>         0.3798
     27 O3         -6.3240   -3.2073    5.1836 O.2       1 <0>        -0.4708
     28 C21        -8.9932   -3.1677    6.2073 C.2       1 <0>         0.5860
     29 O4        -10.1636   -3.1486    6.5380 O.2       1 <0>        -0.5515
     30 N2         -8.0288   -2.9860    7.1311 N.am      1 <0>        -0.8714
     31 O5        -10.8952   -3.3792    4.2299 O.3       1 <0>        -0.5838
     32 N3        -10.2535   -2.9268    1.5758 N.4       1 <0>        -0.3674
     33 C22       -11.6128   -3.4569    1.7463 C.3       1 <0>        -0.0592
     34 C23       -10.2177   -1.5229    2.0071 C.3       1 <0>        -0.0574
     35 O6         -7.1761   -5.4162    2.9624 O.3       1 <0>        -0.5270
     36 O7         -4.5431   -3.9368    3.5432 O.3       1 <0>        -0.4335
     37 H4          0.7460    0.4064   -2.2021 H         1 <0>         0.0685
     38 H5         -0.9451    0.6646   -2.6939 H         1 <0>         0.0407
     39 H6         -0.5316    0.5237   -0.9684 H         1 <0>         0.0369
     40 H7          1.1438   -2.4560   -1.4711 H         1 <0>         0.0383
     41 H8          0.2516   -3.0424   -2.8953 H         1 <0>         0.0528
     42 H9          1.3199   -1.6256   -3.0356 H         1 <0>         0.0586
     43 H10        -2.3859   -1.7224   -3.8268 H         1 <0>         0.1307
     44 H11        -4.6098   -2.6753   -3.3881 H         1 <0>         0.1320
     45 H12        -1.2918   -1.1607    0.9714 H         1 <0>         0.3893
     46 H13        -7.4317   -4.7251    0.5343 H         1 <0>         0.0996
     47 H14        -8.2596   -3.2591   -0.0534 H         1 <0>         0.0726
     48 H15        -6.3276   -3.1635   -1.8091 H         1 <0>         0.0896
     49 H16        -5.5748   -4.5702   -1.0240 H         1 <0>         0.0887
     50 H17        -7.0955   -3.0725    6.8815 H         1 <0>         0.4023
     51 H18        -8.2680   -2.7686    8.0457 H         1 <0>         0.3862
     52 H19       -12.2575   -3.0634    0.9603 H         1 <0>         0.1062
     53 H20       -11.5888   -4.5449    1.6857 H         1 <0>         0.1114
     54 H21       -12.0009   -3.1556    2.7193 H         1 <0>         0.1640
     55 H22        -9.2343   -1.1029    1.7957 H         1 <0>         0.1128
     56 H23       -10.9778   -0.9577    1.4678 H         1 <0>         0.1204
     57 H24       -10.4144   -1.4666    3.0777 H         1 <0>         0.1380
     58 H25        -6.6116   -5.9400    3.5473 H         1 <0>         0.3913
     59 H26        -4.5385   -4.8255    3.9244 H         1 <0>         0.3923
     60 H27        -9.9884   -2.9870    0.6041 H         1 <0>         0.4093
@<TRIPOS>BOND
     1    1    2 1
     2    1   37 1
     3    1   38 1
     4    1   39 1
     5    2    3 1
     6    2    4 1
     7    3   40 1
     8    3   41 1
     9    3   42 1
    10    4    9 ar
    11    4    5 ar
    12    5    6 ar
    13    5   43 1
    14    6    7 ar
    15    6   44 1
    16    7   21 1
    17    7    8 ar
    18    8    9 ar
    19    8   11 1
    20    9   10 1
    21   10   45 1
    22   11   12 2
    23   11   13 1
    24   13   19 1
    25   13   14 2
    26   14   15 1
    27   14   36 1
    28   15   26 1
    29   15   16 1
    30   15   35 1
    31   16   17 1
    32   16   18 1
    33   16   22 1
    34   18   19 1
    35   18   46 1
    36   18   47 1
    37   19   20 1
    38   19   21 1
    39   21   48 1
    40   21   49 1
    41   22   23 1
    42   22   24 1
    43   22   32 1
    44   24   25 2
    45   24   31 1
    46   25   26 1
    47   25   28 1
    48   26   27 2
    49   28   29 2
    50   28   30 am
    51   30   50 1
    52   30   51 1
    53   32   33 1
    54   32   34 1
    55   32   60 1
    56   33   52 1
    57   33   53 1
    58   33   54 1
    59   34   55 1
    60   34   56 1
    61   34   57 1
    62   35   58 1
    63   36   59 1
