@<TRIPOS>MOLECULE
ZINC03251474
   57    60     0     0     0
SMALL
USER_CHARGES
2-[3-cyclopentyl-2-(4-fluorophenyl)imino-4-oxo-thiazolidin-5-yl]-N-(2-methoxy-5-nitro-phenyl)-acetamide
@<TRIPOS>ATOM
      1 C1         -2.0350    0.0263    1.7792 C.3       1 <0>         0.0207
      2 O1         -2.2162    1.3189    1.1976 O.3       1 <0>        -0.3052
      3 C2         -1.1331    1.8850    0.6015 C.ar      1 <0>         0.1599
      4 C3          0.0773    1.2114    0.5769 C.ar      1 <0>        -0.1915
      5 C4          1.1761    1.7858   -0.0345 C.ar      1 <0>        -0.0230
      6 C5          1.0728    3.0351   -0.6182 C.ar      1 <0>        -0.0638
      7 C6         -0.1296    3.7159   -0.5934 C.ar      1 <0>        -0.0241
      8 C7         -1.2365    3.1458    0.0183 C.ar      1 <0>         0.1173
      9 N1         -2.4568    3.8342    0.0447 N.am      1 <0>        -0.6585
     10 C8         -2.4705    5.1775    0.1533 C.2       1 <0>         0.5195
     11 O2         -1.4278    5.7971    0.1469 O.2       1 <0>        -0.5032
     12 C9         -3.7813    5.9096    0.2828 C.3       1 <0>        -0.1162
     13 C10        -3.5175    7.4129    0.3893 C.3       1 <0>        -0.0775
     14 H1         -2.8218    7.6325    1.1992 H         1 <0>         0.1636
     15 C11        -4.8142    8.1894    0.5516 C.2       1 <0>         0.5304
     16 O3         -5.5432    8.0333    1.5079 O.2       1 <0>        -0.4728
     17 N2         -5.0972    9.0459   -0.4149 N.am      1 <0>        -0.5390
     18 C12        -4.2713    9.2282   -1.5045 C.2       1 <0>         0.4076
     19 N3         -4.4384   10.0410   -2.5208 N.2       1 <0>        -0.4485
     20 C13        -3.5036   10.0877   -3.5217 C.ar      1 <0>         0.0835
     21 C14        -2.1440   10.1361   -3.2088 C.ar      1 <0>        -0.1138
     22 C15        -1.2072   10.1791   -4.2206 C.ar      1 <0>        -0.1309
     23 C16        -1.6139   10.1836   -5.5450 C.ar      1 <0>         0.0994
     24 C17        -2.9620   10.1405   -5.8614 C.ar      1 <0>        -0.1399
     25 C18        -3.9075   10.0929   -4.8579 C.ar      1 <0>        -0.0686
     26 F1         -0.6923   10.2306   -6.5318 F         1 <0>        -0.1354
     27 S1         -2.9187    8.0979   -1.2060 S.3       1 <0>        -0.1063
     28 C19        -6.3318    9.8296   -0.3253 C.3       1 <0>         0.1196
     29 C20        -7.2118    9.5732   -1.5661 C.3       1 <0>        -0.1295
     30 C21        -7.8476   10.9529   -1.8716 C.3       1 <0>        -0.1161
     31 C22        -6.6937   11.9383   -1.5606 C.3       1 <0>        -0.1169
     32 C23        -6.0028   11.3328   -0.3214 C.3       1 <0>        -0.1254
     33 N4          2.2529    3.6445   -1.2717 N.pl3     1 <0>         0.0325
     34 O4          3.3133    3.0456   -1.2948 O.2       1 <0>        -0.1615
     35 O5          2.1636    4.7448   -1.7863 O.3       1 <0>        -0.1526
     36 H2         -1.7231   -0.6785    1.0083 H         1 <0>         0.0652
     37 H3         -1.2695    0.0803    2.5533 H         1 <0>         0.0651
     38 H4         -2.9740   -0.3089    2.2195 H         1 <0>         0.1114
     39 H5          0.1613    0.2353    1.0316 H         1 <0>         0.1585
     40 H6          2.1177    1.2572   -0.0566 H         1 <0>         0.1602
     41 H7         -0.2075    4.6913   -1.0504 H         1 <0>         0.1778
     42 H8         -3.2916    3.3439   -0.0152 H         1 <0>         0.4223
     43 H9         -4.3971    5.7100   -0.5942 H         1 <0>         0.1168
     44 H10        -4.3016    5.5677    1.1775 H         1 <0>         0.1306
     45 H11        -1.8260   10.1368   -2.1767 H         1 <0>         0.1405
     46 H12        -0.1549   10.2129   -3.9798 H         1 <0>         0.1424
     47 H13        -3.2733   10.1446   -6.8955 H         1 <0>         0.1429
     48 H14        -4.9582   10.0601   -5.1057 H         1 <0>         0.1403
     49 H15        -6.8771    9.5644    0.5805 H         1 <0>         0.1137
     50 H16        -6.6005    9.2408   -2.4052 H         1 <0>         0.0835
     51 H17        -7.9841    8.8378   -1.3406 H         1 <0>         0.0693
     52 H18        -8.7002   11.1379   -1.2180 H         1 <0>         0.0671
     53 H19        -8.1410   11.0198   -2.9192 H         1 <0>         0.0714
     54 H20        -7.0886   12.9281   -1.3317 H         1 <0>         0.0639
     55 H21        -5.9986   11.9883   -2.3987 H         1 <0>         0.0813
     56 H22        -6.3892   11.7972    0.5858 H         1 <0>         0.0730
     57 H23        -4.9246   11.4792   -0.3863 H         1 <0>         0.0691
@<TRIPOS>BOND
     1    1    2 1
     2    1   36 1
     3    1   37 1
     4    1   38 1
     5    2    3 1
     6    3    8 ar
     7    3    4 ar
     8    4    5 ar
     9    4   39 1
    10    5    6 ar
    11    5   40 1
    12    6    7 ar
    13    6   33 1
    14    7    8 ar
    15    7   41 1
    16    8    9 1
    17    9   10 am
    18    9   42 1
    19   10   11 2
    20   10   12 1
    21   12   13 1
    22   12   43 1
    23   12   44 1
    24   13   14 1
    25   13   27 1
    26   13   15 1
    27   15   16 2
    28   15   17 am
    29   17   18 1
    30   17   28 1
    31   18   19 2
    32   18   27 1
    33   19   20 1
    34   20   25 ar
    35   20   21 ar
    36   21   22 ar
    37   21   45 1
    38   22   23 ar
    39   22   46 1
    40   23   24 ar
    41   23   26 1
    42   24   25 ar
    43   24   47 1
    44   25   48 1
    45   28   32 1
    46   28   29 1
    47   28   49 1
    48   29   30 1
    49   29   50 1
    50   29   51 1
    51   30   31 1
    52   30   52 1
    53   30   53 1
    54   31   32 1
    55   31   54 1
    56   31   55 1
    57   32   56 1
    58   32   57 1
    59   33   34 2
    60   33   35 1
