@<TRIPOS>MOLECULE
ZINC43537124
   57    59     0     0     0
SMALL
USER_CHARGES

@<TRIPOS>ATOM
      1 C1         -0.0066    1.3591   -0.0089 C.ar      1 <0>        -0.1396
      2 C2          1.1829    2.0636   -0.0196 C.ar      1 <0>        -0.0196
      3 C3          2.3874    1.3859   -0.0328 C.ar      1 <0>        -0.2091
      4 C4          2.4028    0.0034   -0.0348 C.ar      1 <0>         0.0349
      5 C5          1.2136   -0.7009   -0.0232 C.ar      1 <0>        -0.6463
      6 C6          0.0087   -0.0230   -0.0115 C.ar      1 <0>         0.0598
      7 S1          1.2332   -2.4628   -0.0270 S.o2      1 <0>         2.6974
      8 O1         -0.0135   -2.8816   -0.5651 O.2       1 <0>        -0.9532
      9 O2          2.4768   -2.8539   -0.5923 O.2       1 <0>        -0.9543
     10 N1          1.2559   -2.9556    1.5538 N.pl3     1 <0>        -1.1031
     11 C7          0.1123   -2.6745    2.4252 C.3       1 <0>         0.1622
     12 H1         -0.7865   -2.5594    1.8194 H         1 <0>         0.1048
     13 C8         -0.0786   -3.8333    3.4058 C.3       1 <0>        -0.1112
     14 C9         -1.2729   -3.5398    4.3159 C.3       1 <0>         0.1316
     15 C10        -1.0148   -2.2490    5.0958 C.3       1 <0>        -0.1645
     16 C11        -0.8238   -1.0902    4.1152 C.3       1 <0>         0.0550
     17 H2         -1.7226   -0.9751    3.5093 H         1 <0>         0.1185
     18 C12         0.3705   -1.3838    3.2051 C.3       1 <0>         0.0909
     19 H3          1.2693   -1.4989    3.8109 H         1 <0>         0.0696
     20 O3          0.5488   -0.3014    2.2892 O.3       1 <0>        -0.5471
     21 O4         -0.5827    0.1154    4.8436 O.3       1 <0>        -0.5675
     22 C13        -2.5156   -3.3806    3.4783 C.2       1 <0>         0.4958
     23 O5         -2.9301   -2.2721    3.2129 O.2       1 <0>        -0.5064
     24 N2         -3.1663   -4.4700    3.0242 N.am      1 <0>        -0.7037
     25 C14        -4.3743   -4.3153    2.2099 C.3       1 <0>         0.1337
     26 H4         -4.2741   -3.4331    1.5776 H         1 <0>         0.1231
     27 C15        -4.5561   -5.5541    1.3294 C.3       1 <0>        -0.1335
     28 C16        -5.9524   -5.4991    0.6979 C.3       1 <0>        -0.1352
     29 C17        -6.9962   -5.6728    1.8018 C.3       1 <0>         0.1051
     30 N3         -6.7368   -4.7491    2.8991 N.am      1 <0>        -0.7187
     31 C18        -5.5650   -4.1511    3.1102 C.2       1 <0>         0.5043
     32 O6         -5.4552   -3.4342    4.0822 O.2       1 <0>        -0.5358
     33 O7         -1.4513   -4.6221    5.2318 O.3       1 <0>        -0.5424
     34 C19         3.6840    2.1539   -0.0454 C.3       1 <0>         0.5093
     35 F1          3.4131    3.5264   -0.0411 F         1 <0>        -0.1768
     36 F2          4.4331    1.8229    1.0888 F         1 <0>        -0.1755
     37 F3          4.4094    1.8253   -1.1956 F         1 <0>        -0.1752
     38 H5         -0.9478    1.8886    0.0059 H         1 <0>         0.1405
     39 H6          1.1709    3.1436   -0.0180 H         1 <0>         0.1416
     40 H7          3.3439   -0.5262   -0.0458 H         1 <0>         0.1431
     41 H8         -0.9205   -0.5733   -0.0032 H         1 <0>         0.1402
     42 H9          2.0264   -3.4304    1.9028 H         1 <0>         0.4219
     43 H10        -0.2625   -4.7529    2.8503 H         1 <0>         0.0970
     44 H11         0.8202   -3.9485    4.0117 H         1 <0>         0.1005
     45 H12        -1.8656   -2.0399    5.7442 H         1 <0>         0.0806
     46 H13        -0.1160   -2.3641    5.7016 H         1 <0>         0.0899
     47 H14         0.7171    0.5504    2.7149 H         1 <0>         0.3848
     48 H15        -1.3005    0.3635    5.4422 H         1 <0>         0.3851
     49 H16        -2.8347   -5.3565    3.2364 H         1 <0>         0.4100
     50 H17        -3.7988   -5.5614    0.5454 H         1 <0>         0.0910
     51 H18        -4.4637   -6.4536    1.9380 H         1 <0>         0.0794
     52 H19        -6.0947   -4.5357    0.2083 H         1 <0>         0.0788
     53 H20        -6.0553   -6.3018   -0.0323 H         1 <0>         0.0955
     54 H21        -7.9880   -5.4780    1.3938 H         1 <0>         0.0816
     55 H22        -6.9584   -6.6960    2.1757 H         1 <0>         0.0696
     56 H23        -7.4623   -4.5586    3.5141 H         1 <0>         0.4014
     57 H24        -2.1928   -4.5036    5.8411 H         1 <0>         0.3900
@<TRIPOS>BOND
     1    1    6 ar
     2    1    2 ar
     3    1   38 1
     4    2    3 ar
     5    2   39 1
     6    3    4 ar
     7    3   34 1
     8    4    5 ar
     9    4   40 1
    10    5    6 ar
    11    5    7 1
    12    6   41 1
    13    7    8 2
    14    7    9 2
    15    7   10 1
    16   10   11 1
    17   10   42 1
    18   11   12 1
    19   11   18 1
    20   11   13 1
    21   13   14 1
    22   13   43 1
    23   13   44 1
    24   14   15 1
    25   14   22 1
    26   14   33 1
    27   15   16 1
    28   15   45 1
    29   15   46 1
    30   16   17 1
    31   16   18 1
    32   16   21 1
    33   18   19 1
    34   18   20 1
    35   20   47 1
    36   21   48 1
    37   22   23 2
    38   22   24 am
    39   24   25 1
    40   24   49 1
    41   25   26 1
    42   25   31 1
    43   25   27 1
    44   27   28 1
    45   27   50 1
    46   27   51 1
    47   28   29 1
    48   28   52 1
    49   28   53 1
    50   29   30 1
    51   29   54 1
    52   29   55 1
    53   30   31 am
    54   30   56 1
    55   31   32 2
    56   33   57 1
    57   34   35 1
    58   34   36 1
    59   34   37 1
