@<TRIPOS>MOLECULE
ZINC09602354
   59    63     0     0     0
SMALL
USER_CHARGES
2-(3-benzothiazol-2-yl-1-piperidyl)-N-(4-methyl-2,5-dioxo-4-phenyl-imidazolidin-1-yl)-acetamide
@<TRIPOS>ATOM
      1 C1          1.1512   -2.7156   -1.4551 C.3       1 <0>        -0.1497
      2 C2          1.2289   -2.1857   -0.0219 C.3       1 <0>         0.1854
      3 C3          2.4718   -2.7060    0.6724 C.2       1 <0>         0.5399
      4 O1          3.6249   -2.5138    0.3510 O.2       1 <0>        -0.4352
      5 N1          2.0285   -3.4261    1.7218 N.am      1 <0>        -0.3779
      6 C4          0.6922   -3.4330    1.7863 C.2       1 <0>         0.7114
      7 O2          0.0603   -4.0155    2.6457 O.2       1 <0>        -0.5212
      8 N2          0.1261   -2.7235    0.7934 N.am      1 <0>        -0.7017
      9 N3          2.8638   -4.0866    2.6322 N.am      1 <0>        -0.4817
     10 C5          3.0503   -3.5787    3.8666 C.2       1 <0>         0.5094
     11 O3          2.4949   -2.5499    4.1893 O.2       1 <0>        -0.4962
     12 C6          3.9488   -4.2891    4.8459 C.3       1 <0>        -0.0135
     13 C7          4.6246   -2.2310    5.9267 C.3       1 <0>        -0.0153
     14 C8          4.5151   -1.4233    7.2219 C.3       1 <0>        -0.1396
     15 C9          5.1982   -2.1921    8.3563 C.3       1 <0>        -0.1284
     16 C10         4.5456   -3.5704    8.4937 C.3       1 <0>        -0.0075
     17 H1          3.4952   -3.4509    8.7592 H         1 <0>         0.1210
     18 C11         4.6542   -4.3158    7.1615 C.3       1 <0>         0.0066
     19 C12         5.2509   -4.3562    9.5689 C.2       1 <0>         0.0931
     20 N4          6.5039   -4.7109    9.6208 N.2       1 <0>        -0.4813
     21 C13         7.0153   -5.4168   10.6508 C.ar      1 <0>         0.0621
     22 C14         8.3389   -5.8675   10.8511 C.ar      1 <0>        -0.0502
     23 C15         8.6696   -6.5789   11.9625 C.ar      1 <0>        -0.1083
     24 C16         7.7293   -6.8881   12.9356 C.ar      1 <0>        -0.0737
     25 C17         6.4230   -6.4657   12.7762 C.ar      1 <0>        -0.0716
     26 C18         6.0793   -5.7461   11.6576 C.ar      1 <0>        -0.1390
     27 S1          4.5881   -5.0132   11.0330 S.3       1 <0>         0.0606
     28 C19         1.2084   -0.6789   -0.0136 C.ar      1 <0>        -0.1081
     29 C20         0.0021   -0.0041    0.0020 C.ar      1 <0>        -0.0930
     30 C21        -0.0167    1.3781    0.0096 C.ar      1 <0>        -0.1131
     31 C22         1.1709    2.0855    0.0021 C.ar      1 <0>        -0.1022
     32 C23         2.3773    1.4107   -0.0136 C.ar      1 <0>        -0.1122
     33 C24         2.3961    0.0285   -0.0212 C.ar      1 <0>        -0.1104
     34 H2          2.0038   -2.3472   -2.0255 H         1 <0>         0.0937
     35 H3          1.1671   -3.8054   -1.4409 H         1 <0>         0.0768
     36 H4          0.2271   -2.3718   -1.9200 H         1 <0>         0.0934
     37 H5         -0.8232   -2.5915    0.6437 H         1 <0>         0.4499
     38 H6          3.3080   -4.9094    2.3741 H         1 <0>         0.4383
     39 H7          3.5648   -5.2926    5.0293 H         1 <0>         0.1708
     40 H8          4.9556   -4.3550    4.4335 H         1 <0>         0.1730
     41 H9          5.6756   -2.3721    5.6744 H         1 <0>         0.1342
     42 H10         4.1267   -1.6930    5.1200 H         1 <0>         0.1426
     43 H11         3.4642   -1.2700    7.4674 H         1 <0>         0.0933
     44 H12         5.0030   -0.4574    7.0915 H         1 <0>         0.1203
     45 H13         5.0849   -1.6408    9.2898 H         1 <0>         0.1003
     46 H14         6.2575   -2.3116    8.1291 H         1 <0>         0.0955
     47 H15         4.1778   -5.2921    7.2517 H         1 <0>         0.1375
     48 H16         5.7051   -4.4470    6.9036 H         1 <0>         0.1474
     49 H17         9.0964   -5.6452   10.1140 H         1 <0>         0.1365
     50 H18         9.6890   -6.9117   12.0907 H         1 <0>         0.1418
     51 H19         8.0159   -7.4542   13.8096 H         1 <0>         0.1469
     52 H20         5.6797   -6.6983   13.5244 H         1 <0>         0.1406
     53 H21        -0.9258   -0.5567    0.0079 H         1 <0>         0.1245
     54 H22        -0.9592    1.9054    0.0170 H         1 <0>         0.1321
     55 H23         1.1563    3.1654    0.0077 H         1 <0>         0.1304
     56 H24         3.3052    1.9634   -0.0192 H         1 <0>         0.1301
     57 H25         3.3386   -0.4987   -0.0327 H         1 <0>         0.1359
     58 N5          3.9566   -3.5359    6.1170 N.4       1 <0>        -0.3808
     59 H26         2.9873   -3.3736    6.4142 H         1 <0>         0.4366
@<TRIPOS>BOND
     1    1    2 1
     2    1   34 1
     3    1   35 1
     4    1   36 1
     5    2    8 1
     6    2    3 1
     7    2   28 1
     8    3    4 2
     9    3    5 am
    10    5    6 am
    11    5    9 1
    12    6    7 2
    13    6    8 am
    14    8   37 1
    15    9   10 am
    16    9   38 1
    17   10   11 2
    18   10   12 1
    19   12   39 1
    20   12   40 1
    21   12   58 1
    22   13   14 1
    23   13   41 1
    24   13   42 1
    25   13   58 1
    26   14   15 1
    27   14   43 1
    28   14   44 1
    29   15   16 1
    30   15   45 1
    31   15   46 1
    32   16   17 1
    33   16   18 1
    34   16   19 1
    35   18   47 1
    36   18   48 1
    37   18   58 1
    38   19   27 1
    39   19   20 2
    40   20   21 1
    41   21   26 ar
    42   21   22 ar
    43   22   23 ar
    44   22   49 1
    45   23   24 ar
    46   23   50 1
    47   24   25 ar
    48   24   51 1
    49   25   26 ar
    50   25   52 1
    51   26   27 1
    52   28   33 ar
    53   28   29 ar
    54   29   30 ar
    55   29   53 1
    56   30   31 ar
    57   30   54 1
    58   31   32 ar
    59   31   55 1
    60   32   33 ar
    61   32   56 1
    62   33   57 1
    63   58   59 1
