@<TRIPOS>MOLECULE
ZINC23223611
   54    57     0     0     0
SMALL
USER_CHARGES
methyl 2-(1,3-dihydrobenzimidazol-2-ylidene)-4-(1-ethyl-5-sulfamoyl-benzimidazol-2-yl)sulfanyl-3-oxo-butanoate
@<TRIPOS>ATOM
      1 C1         -7.8096   -2.2662   -0.9555 C.3       1 <0>        -0.1749
      2 C2         -6.5323   -3.0459   -0.6370 C.3       1 <0>         0.0998
      3 N1         -5.7170   -2.2815    0.3103 N.pl3     1 <0>        -0.4726
      4 C3         -4.7418   -1.3508   -0.0091 C.ar      1 <0>         0.1006
      5 C4         -4.2372   -0.8587   -1.2031 C.ar      1 <0>        -0.1202
      6 C5         -3.2410    0.0958   -1.1863 C.ar      1 <0>        -0.0265
      7 C6         -2.7327    0.5596    0.0181 C.ar      1 <0>        -0.6700
      8 C7         -3.2220    0.0821    1.2132 C.ar      1 <0>         0.0579
      9 C8         -4.2345   -0.8808    1.2134 C.ar      1 <0>         0.0363
     10 N2         -4.9055   -1.5291    2.2011 N.2       1 <0>        -0.4803
     11 C9         -5.7775   -2.3529    1.6734 C.2       1 <0>         0.2575
     12 S1         -6.8649   -3.3971    2.5855 S.3       1 <0>         0.0459
     13 C10        -6.3827   -2.9554    4.2732 C.3       1 <0>        -0.1426
     14 C11        -7.2060   -3.7489    5.2548 C.2       1 <0>         0.4485
     15 O1         -8.0386   -4.5372    4.8521 O.2       1 <0>        -0.5258
     16 C12        -7.0108   -3.5771    6.6373 C.2       1 <0>        -0.4503
     17 C13        -7.7800   -4.3186    7.5545 C.2       1 <0>         0.5229
     18 N3         -8.7395   -5.2202    7.2265 N.pl3     1 <0>        -0.5884
     19 C14        -9.2681   -5.7416    8.4016 C.ar      1 <0>         0.0848
     20 C15       -10.2553   -6.6820    8.6622 C.ar      1 <0>        -0.0959
     21 C16       -10.5756   -6.9990    9.9668 C.ar      1 <0>        -0.1018
     22 C17        -9.9161   -6.3834   11.0176 C.ar      1 <0>        -0.1015
     23 C18        -8.9330   -5.4469   10.7696 C.ar      1 <0>        -0.0968
     24 C19        -8.6034   -5.1204    9.4614 C.ar      1 <0>         0.0849
     25 N4         -7.6827   -4.2396    8.9056 N.pl3     1 <0>        -0.5945
     26 C20        -6.0093   -2.6290    7.1217 C.2       1 <0>         0.5426
     27 O2         -5.8405   -2.4804    8.3174 O.2       1 <0>        -0.5609
     28 O3         -5.2723   -1.9186    6.2429 O.3       1 <0>        -0.3400
     29 C21        -4.3122   -1.0104    6.7864 C.3       1 <0>         0.0309
     30 S2         -1.4563    1.7742    0.0186 S.o2      1 <0>         2.6411
     31 O4         -1.5359    2.4465    1.2680 O.2       1 <0>        -0.9516
     32 O5         -1.5477    2.4600   -1.2226 O.2       1 <0>        -0.9853
     33 N5         -0.0111    0.9658    0.0074 N.pl3     1 <0>        -1.1626
     34 H1         -8.4218   -2.8401   -1.6668 H         1 <0>         0.0838
     35 H2         -7.5453   -1.2951   -1.3995 H         1 <0>         0.0642
     36 H3         -8.3800   -2.1028   -0.0293 H         1 <0>         0.0698
     37 H4         -6.7966   -4.0170   -0.1930 H         1 <0>         0.1016
     38 H5         -5.9619   -3.2093   -1.5632 H         1 <0>         0.0979
     39 H6         -4.6261   -1.2185   -2.1442 H         1 <0>         0.1328
     40 H7         -2.8516    0.4813   -2.1169 H         1 <0>         0.1482
     41 H8         -2.8248    0.4508    2.1473 H         1 <0>         0.1505
     42 H9         -5.3165   -3.1822    4.4211 H         1 <0>         0.1355
     43 H10        -6.5548   -1.8810    4.4344 H         1 <0>         0.1355
     44 H11        -8.9695   -5.4185    6.1693 H         1 <0>         0.4824
     45 H12       -10.7716   -7.1649    7.8457 H         1 <0>         0.1373
     46 H13       -11.3438   -7.7307   10.1691 H         1 <0>         0.1401
     47 H14       -10.1720   -6.6374   12.0356 H         1 <0>         0.1400
     48 H15        -8.4212   -4.9690   11.5919 H         1 <0>         0.1369
     49 H16        -6.9562   -3.5536    9.3655 H         1 <0>         0.4833
     50 H17        -3.7850   -0.5003    5.9667 H         1 <0>         0.1057
     51 H18        -3.5871   -1.5665    7.3988 H         1 <0>         0.0604
     52 H19        -4.8255   -0.2653    7.4121 H         1 <0>         0.0605
     53 H20         0.8152    1.6919    0.0074 H         1 <0>         0.4135
     54 H21         0.0515    0.3391   -0.8944 H         1 <0>         0.4092
@<TRIPOS>BOND
     1    1    2 1
     2    1   34 1
     3    1   35 1
     4    1   36 1
     5    2    3 1
     6    2   37 1
     7    2   38 1
     8    3   11 1
     9    3    4 1
    10    4    9 ar
    11    4    5 ar
    12    5    6 ar
    13    5   39 1
    14    6    7 ar
    15    6   40 1
    16    7    8 ar
    17    7   30 1
    18    8    9 ar
    19    8   41 1
    20    9   10 1
    21   10   11 2
    22   11   12 1
    23   12   13 1
    24   13   14 1
    25   13   42 1
    26   13   43 1
    27   14   15 2
    28   14   16 1
    29   16   17 2
    30   16   26 1
    31   17   25 1
    32   17   18 1
    33   18   19 1
    34   18   44 1
    35   19   24 ar
    36   19   20 ar
    37   20   21 ar
    38   20   45 1
    39   21   22 ar
    40   21   46 1
    41   22   23 ar
    42   22   47 1
    43   23   24 ar
    44   23   48 1
    45   24   25 1
    46   25   49 1
    47   26   27 2
    48   26   28 1
    49   28   29 1
    50   29   50 1
    51   29   51 1
    52   29   52 1
    53   30   31 2
    54   30   32 2
    55   30   33 1
    56   33   53 1
    57   33   54 1
