@<TRIPOS>MOLECULE
ZINC39774210
   68    71     0     0     0
SMALL
USER_CHARGES

@<TRIPOS>ATOM
      1 C1         -0.5698    1.8966    0.0922 C.3       1 <0>        -0.1718
      2 C2         -0.6629    0.3921    0.3547 C.3       1 <0>         0.1740
      3 H1         -1.6852    0.1342    0.6315 H         1 <0>         0.1208
      4 C3         -0.2750   -0.3603   -0.8920 C.2       1 <0>         0.5107
      5 O1          0.6671   -1.1243   -0.8710 O.2       1 <0>        -0.4683
      6 N1         -0.9748   -0.1846   -2.0304 N.am      1 <0>        -0.5864
      7 N2         -0.6141   -0.8841   -3.1894 N.2       1 <0>        -0.2207
      8 C4         -1.2090   -0.6275   -4.3137 C.2       1 <0>         0.1088
      9 C5         -1.8658    0.6769   -4.5195 C.ar      1 <0>        -0.1031
     10 C6         -2.7205    0.8683   -5.6076 C.ar      1 <0>        -0.0873
     11 C7         -3.3317    2.0908   -5.7936 C.ar      1 <0>        -0.1160
     12 C8         -3.0995    3.1263   -4.9056 C.ar      1 <0>        -0.1050
     13 C9         -2.2541    2.9439   -3.8255 C.ar      1 <0>        -0.1130
     14 C10        -1.6406    1.7250   -3.6239 C.ar      1 <0>        -0.1380
     15 N3          0.2447    0.0298    1.4461 N.am      1 <0>        -0.6058
     16 C11         1.5716    0.2125    1.4451 C.2       1 <0>         0.7193
     17 O2          2.1714    0.7115    0.5125 O.2       1 <0>        -0.5476
     18 N4          2.1780   -0.2038    2.5646 N.am      1 <0>        -0.5805
     19 C12         1.1703   -0.7527    3.4843 C.3       1 <0>         0.3997
     20 H2          1.1472   -0.1808    4.4119 H         1 <0>         0.1482
     21 C13        -0.1571   -0.5866    2.7193 C.3       1 <0>         0.1424
     22 C14        -1.1096    0.3342    3.4847 C.3       1 <0>        -0.1562
     23 C15        -0.8069   -1.9500    2.4746 C.3       1 <0>        -0.1497
     24 N5          1.4410   -2.1658    3.7597 N.am      1 <0>        -0.4809
     25 C16         1.4406   -2.6170    5.0297 C.2       1 <0>         0.7033
     26 O3          1.1286   -1.8728    5.9391 O.2       1 <0>        -0.5492
     27 N6          1.7861   -3.8931    5.2916 N.am      1 <0>        -0.6831
     28 C17         1.6963   -4.3885    6.5973 C.ar      1 <0>         0.1593
     29 C18         0.6859   -3.9465    7.4412 C.ar      1 <0>        -0.1182
     30 C19         0.5996   -4.4377    8.7291 C.ar      1 <0>        -0.0994
     31 C20         1.5181   -5.3685    9.1787 C.ar      1 <0>        -0.1326
     32 C21         2.5257   -5.8103    8.3410 C.ar      1 <0>        -0.0989
     33 C22         2.6139   -5.3273    7.0500 C.ar      1 <0>        -0.1437
     34 O4          1.7031   -3.0578    2.6915 O.3       1 <0>        -0.3077
     35 C23         3.5521   -0.1284    2.8186 C.ar      1 <0>         0.1684
     36 C24         4.4423   -0.8747    2.0577 C.ar      1 <0>        -0.0961
     37 C25         5.7979   -0.7977    2.3105 C.ar      1 <0>        -0.1106
     38 C26         6.2690    0.0214    3.3201 C.ar      1 <0>        -0.1168
     39 C27         5.3851    0.7655    4.0798 C.ar      1 <0>        -0.1097
     40 C28         4.0288    0.6973    3.8282 C.ar      1 <0>        -0.1194
     41 H3          0.4525    2.1545   -0.1846 H         1 <0>         0.0848
     42 H4         -1.2451    2.1662   -0.7199 H         1 <0>         0.0714
     43 H5         -0.8504    2.4408    0.9939 H         1 <0>         0.0803
     44 H6         -1.7281    0.4263   -2.0472 H         1 <0>         0.3930
     45 H7         -1.2232   -1.3690   -5.0987 H         1 <0>         0.1872
     46 H8         -2.9020    0.0612   -6.3018 H         1 <0>         0.1332
     47 H9         -3.9928    2.2402   -6.6345 H         1 <0>         0.1295
     48 H10        -3.5802    4.0816   -5.0565 H         1 <0>         0.1275
     49 H11        -2.0772    3.7566   -3.1366 H         1 <0>         0.1285
     50 H12        -0.9845    1.5826   -2.7779 H         1 <0>         0.1348
     51 H13        -2.0116    0.4955    2.8944 H         1 <0>         0.0741
     52 H14        -1.3755   -0.1276    4.4356 H         1 <0>         0.0822
     53 H15        -0.6204    1.2905    3.6694 H         1 <0>         0.0697
     54 H16        -0.1531   -2.5568    1.8481 H         1 <0>         0.0849
     55 H17        -0.9658   -2.4532    3.4283 H         1 <0>         0.0685
     56 H18        -1.7646   -1.8112    1.9729 H         1 <0>         0.0611
     57 H19         2.0971   -4.4682    4.5750 H         1 <0>         0.4039
     58 H20        -0.0316   -3.2193    7.0908 H         1 <0>         0.1353
     59 H21        -0.1858   -4.0941    9.3860 H         1 <0>         0.1271
     60 H22         1.4485   -5.7511   10.1862 H         1 <0>         0.1247
     61 H23         3.2417   -6.5371    8.6951 H         1 <0>         0.1277
     62 H24         3.3983   -5.6763    6.3947 H         1 <0>         0.1253
     63 H25         1.7899   -3.9818    2.9630 H         1 <0>         0.3765
     64 H26         4.0750   -1.5149    1.2693 H         1 <0>         0.1251
     65 H27         6.4907   -1.3782    1.7194 H         1 <0>         0.1267
     66 H28         7.3295    0.0799    3.5159 H         1 <0>         0.1258
     67 H29         5.7561    1.4041    4.8678 H         1 <0>         0.1282
     68 H30         3.3393    1.2824    4.4188 H         1 <0>         0.1237
@<TRIPOS>BOND
     1    1    2 1
     2    1   41 1
     3    1   42 1
     4    1   43 1
     5    2    3 1
     6    2    4 1
     7    2   15 1
     8    4    5 2
     9    4    6 am
    10    6    7 1
    11    6   44 1
    12    7    8 2
    13    8    9 1
    14    8   45 1
    15    9   14 ar
    16    9   10 ar
    17   10   11 ar
    18   10   46 1
    19   11   12 ar
    20   11   47 1
    21   12   13 ar
    22   12   48 1
    23   13   14 ar
    24   13   49 1
    25   14   50 1
    26   15   21 1
    27   15   16 am
    28   16   17 2
    29   16   18 am
    30   18   19 1
    31   18   35 1
    32   19   20 1
    33   19   21 1
    34   19   24 1
    35   21   22 1
    36   21   23 1
    37   22   51 1
    38   22   52 1
    39   22   53 1
    40   23   54 1
    41   23   55 1
    42   23   56 1
    43   24   25 am
    44   24   34 1
    45   25   26 2
    46   25   27 am
    47   27   28 1
    48   27   57 1
    49   28   33 ar
    50   28   29 ar
    51   29   30 ar
    52   29   58 1
    53   30   31 ar
    54   30   59 1
    55   31   32 ar
    56   31   60 1
    57   32   33 ar
    58   32   61 1
    59   33   62 1
    60   34   63 1
    61   35   40 ar
    62   35   36 ar
    63   36   37 ar
    64   36   64 1
    65   37   38 ar
    66   37   65 1
    67   38   39 ar
    68   38   66 1
    69   39   40 ar
    70   39   67 1
    71   40   68 1
