@<TRIPOS>MOLECULE
ZINC26579608
   72    73     0     0     0
SMALL
USER_CHARGES
(8S,11R,12S)-12-(hydroxycarbamoyl)-11-isobutyl-2,10-dioxo-N-(4-pyridylmethyl)-1-oxa-3,9-diazacyclopentadecane-8-carboxamide
@<TRIPOS>ATOM
      1 C1         -3.8424   -2.4862    6.4018 C.3       1 <0>        -0.1457
      2 C2         -3.2051   -1.4554    5.4679 C.3       1 <0>        -0.1062
      3 C3         -4.1080   -1.2426    4.2511 C.3       1 <0>        -0.1745
      4 C4         -3.0325   -0.1302    6.2128 C.3       1 <0>        -0.1245
      5 C5         -2.0711    0.7769    5.4285 C.3       1 <0>        -0.0857
      6 H1         -1.8988    1.7025    5.9974 H         1 <0>         0.1073
      7 C6         -2.6469    1.1166    4.1179 C.3       1 <0>        -0.1031
      8 H2         -2.4671    0.2375    3.4816 H         1 <0>         0.1332
      9 C7         -1.9779    2.4785    3.6334 C.3       1 <0>        -0.1046
     10 C8         -1.5721    2.2825    2.1441 C.3       1 <0>        -0.1586
     11 C9         -1.0478    3.6386    1.6095 C.3       1 <0>         0.0893
     12 O1          0.0735    4.0081    2.3756 O.3       1 <0>        -0.3606
     13 C10         1.2123    3.3460    2.2328 C.2       1 <0>         0.6483
     14 O2          1.2179    2.4174    1.4560 O.2       1 <0>        -0.5720
     15 N1          2.3641    3.6270    2.9394 N.am      1 <0>        -0.7295
     16 C11         3.5103    2.7262    2.8017 C.3       1 <0>         0.1295
     17 C12         3.6997    2.0044    4.1466 C.3       1 <0>        -0.1348
     18 C13         2.7529    0.8217    4.2844 C.3       1 <0>        -0.1186
     19 C14         2.6457    0.3689    5.6815 C.3       1 <0>        -0.1186
     20 C15         1.4776   -0.6371    5.7947 C.3       1 <0>         0.1214
     21 H3          1.3608   -1.1783    4.8442 H         1 <0>         0.1292
     22 N2          0.2575    0.1150    6.1391 N.am      1 <0>        -0.7477
     23 C16        -0.7785    0.0305    5.1473 C.2       1 <0>         0.5371
     24 O3         -0.6464   -0.6919    4.1677 O.2       1 <0>        -0.5124
     25 C17         1.7037   -1.5886    6.9801 C.2       1 <0>         0.5061
     26 O4          1.1320   -1.3935    8.0318 O.2       1 <0>        -0.5338
     27 N3          2.5373   -2.6397    6.8511 N.am      1 <0>        -0.7357
     28 C18         2.7528   -3.5467    7.9811 C.3       1 <0>         0.1614
     29 C19         3.7208   -4.6294    7.5787 C.ar      1 <0>        -0.0629
     30 C20         3.2672   -5.8172    7.0257 C.ar      1 <0>        -0.1550
     31 C21         4.1848   -6.7857    6.6649 C.ar      1 <0>         0.1005
     32 N4          5.4762   -6.5937    6.8501 N.ar      1 <0>        -0.4795
     33 C22         5.9429   -5.4787    7.3775 C.ar      1 <0>         0.0998
     34 C23         5.0856   -4.4638    7.7581 C.ar      1 <0>        -0.1553
     35 C24        -4.1580    1.3963    4.2341 C.2       1 <0>         0.5399
     36 O5         -4.6011    1.9306    5.2286 O.2       1 <0>        -0.5229
     37 N5         -4.9871    1.0471    3.2306 N.am      1 <0>        -0.5983
     38 O6         -6.3755    1.3041    3.3374 O.3       1 <0>        -0.3514
     39 H4         -3.1933   -2.6392    7.2766 H         1 <0>         0.0536
     40 H5         -3.9665   -3.4389    5.8662 H         1 <0>         0.0537
     41 H6         -4.8256   -2.1215    6.7340 H         1 <0>         0.0543
     42 H7         -2.2219   -1.8200    5.1358 H         1 <0>         0.0791
     43 H8         -3.6498   -0.5015    3.5797 H         1 <0>         0.0690
     44 H9         -5.0912   -0.8780    4.5834 H         1 <0>         0.0619
     45 H10        -4.2321   -2.1954    3.7155 H         1 <0>         0.0534
     46 H11        -4.0093    0.3665    6.3085 H         1 <0>         0.1024
     47 H12        -2.6197   -0.3234    7.2140 H         1 <0>         0.0732
     48 H13        -2.7034    3.2993    3.7335 H         1 <0>         0.0770
     49 H14        -1.0939    2.6931    4.2518 H         1 <0>         0.0772
     50 H15        -0.7850    1.5171    2.0762 H         1 <0>         0.0920
     51 H16        -2.4492    1.9588    1.5646 H         1 <0>         0.0776
     52 H17        -0.7649    3.5311    0.5520 H         1 <0>         0.0714
     53 H18        -1.8370    4.3992    1.7024 H         1 <0>         0.1137
     54 H19         2.4319    4.5069    3.5960 H         1 <0>         0.4292
     55 H20         3.3108    1.9987    2.0012 H         1 <0>         0.0981
     56 H21         4.4078    3.3105    2.5507 H         1 <0>         0.0777
     57 H22         4.7325    1.6333    4.2213 H         1 <0>         0.0730
     58 H23         3.5017    2.7060    4.9704 H         1 <0>         0.0683
     59 H24         1.7504    1.1122    3.9370 H         1 <0>         0.0655
     60 H25         3.1229   -0.0170    3.6764 H         1 <0>         0.0631
     61 H26         3.5853   -0.1175    5.9824 H         1 <0>         0.0715
     62 H27         2.4554    1.2340    6.3338 H         1 <0>         0.0754
     63 H28         0.2039    0.6726    7.0858 H         1 <0>         0.4430
     64 H29         3.0559   -2.8165    5.8973 H         1 <0>         0.4236
     65 H30         3.1658   -2.9827    8.8304 H         1 <0>         0.0799
     66 H31         1.7950   -4.0015    8.2741 H         1 <0>         0.0789
     67 H32         2.2105   -5.9822    6.8757 H         1 <0>         0.1367
     68 H33         3.8399   -7.7123    6.2304 H         1 <0>         0.1587
     69 H34         7.0074   -5.3575    7.5138 H         1 <0>         0.1586
     70 H35         5.4738   -3.5532    8.1900 H         1 <0>         0.1369
     71 H36        -4.5853    0.5624    2.3286 H         1 <0>         0.4239
     72 H37        -7.0522    1.0191    2.5184 H         1 <0>         0.4172
@<TRIPOS>BOND
     1    1    2 1
     2    1   39 1
     3    1   40 1
     4    1   41 1
     5    2    3 1
     6    2    4 1
     7    2   42 1
     8    3   43 1
     9    3   44 1
    10    3   45 1
    11    4    5 1
    12    4   46 1
    13    4   47 1
    14    5    6 1
    15    5   23 1
    16    5    7 1
    17    7    8 1
    18    7    9 1
    19    7   35 1
    20    9   10 1
    21    9   48 1
    22    9   49 1
    23   10   11 1
    24   10   50 1
    25   10   51 1
    26   11   12 1
    27   11   52 1
    28   11   53 1
    29   12   13 1
    30   13   14 2
    31   13   15 am
    32   15   16 1
    33   15   54 1
    34   16   17 1
    35   16   55 1
    36   16   56 1
    37   17   18 1
    38   17   57 1
    39   17   58 1
    40   18   19 1
    41   18   59 1
    42   18   60 1
    43   19   20 1
    44   19   61 1
    45   19   62 1
    46   20   21 1
    47   20   22 1
    48   20   25 1
    49   22   23 am
    50   22   63 1
    51   23   24 2
    52   25   26 2
    53   25   27 am
    54   27   28 1
    55   27   64 1
    56   28   29 1
    57   28   65 1
    58   28   66 1
    59   29   34 ar
    60   29   30 ar
    61   30   31 ar
    62   30   67 1
    63   31   32 ar
    64   31   68 1
    65   32   33 ar
    66   33   34 ar
    67   33   69 1
    68   34   70 1
    69   35   36 2
    70   35   37 am
    71   37   38 1
    72   37   71 1
    73   38   72 1
