@<TRIPOS>MOLECULE
ZINC66952166
   55    57     0     0     0
SMALL
USER_CHARGES

@<TRIPOS>ATOM
      1 C1          0.0329    1.3476   -0.2210 C.ar      1 <0>        -0.0825
      2 C2          1.2249    2.0425   -0.1487 C.ar      1 <0>        -0.1401
      3 C3          2.3975    1.3811    0.1673 C.ar      1 <0>         0.1425
      4 C4          2.3772    0.0049    0.4150 C.ar      1 <0>        -0.1571
      5 C5          1.1713   -0.6939    0.3416 C.ar      1 <0>        -0.0951
      6 C6          0.0035   -0.0203    0.0237 C.ar      1 <0>         0.1476
      7 N1         -1.2087   -0.7185   -0.0514 N.am      1 <0>        -0.6811
      8 C7         -2.3744   -0.0658    0.1262 C.2       1 <0>         0.7113
      9 O1         -2.3880    1.1484    0.1881 O.2       1 <0>        -0.5647
     10 N2         -3.5251   -0.7591    0.2350 N.am      1 <0>        -0.6233
     11 C8         -3.5089   -2.2242    0.3442 C.3       1 <0>         0.1120
     12 C9         -4.3056   -2.6348    1.5866 C.3       1 <0>        -0.1425
     13 C10        -5.7075   -2.0255    1.5131 C.3       1 <0>         0.1460
     14 C11        -5.6015   -0.4990    1.4900 C.3       1 <0>        -0.1448
     15 C12        -4.8192   -0.0636    0.2527 C.3       1 <0>         0.1304
     16 N3         -6.4832   -2.4433    2.6835 N.am      1 <0>        -0.7324
     17 C13        -7.8292   -2.4784    2.6225 C.2       1 <0>         0.5138
     18 O2         -8.3981   -2.1641    1.5985 O.2       1 <0>        -0.5312
     19 C14        -8.6271   -2.9081    3.8265 C.3       1 <0>        -0.1356
     20 C15       -10.1196   -2.8594    3.4931 C.3       1 <0>        -0.0771
     21 C16       -10.5688   -1.3973    3.2924 C.3       1 <0>        -0.1134
     22 C17       -11.9908   -1.3494    3.9045 C.3       1 <0>        -0.1285
     23 C18       -11.8607   -2.2695    5.1436 C.3       1 <0>        -0.1258
     24 C19       -10.9410   -3.4140    4.6701 C.3       1 <0>        -0.1227
     25 C20         3.6270   -0.7063    0.7524 C.2       1 <0>         0.5639
     26 O3          4.6761   -0.0953    0.8153 O.2       1 <0>        -0.5220
     27 N4          3.6043   -2.0327    0.9906 N.am      1 <0>        -0.8494
     28 F1          3.5614    2.0636    0.2362 F         1 <0>        -0.1143
     29 H1         -0.8804    1.8702   -0.4642 H         1 <0>         0.1788
     30 H2          1.2409    3.1053   -0.3400 H         1 <0>         0.1488
     31 H3          1.1489   -1.7569    0.5314 H         1 <0>         0.1371
     32 H4         -1.2090   -1.6717   -0.2311 H         1 <0>         0.4093
     33 H5         -3.9652   -2.6619   -0.5436 H         1 <0>         0.0801
     34 H6         -2.4803   -2.5722    0.4382 H         1 <0>         0.0826
     35 H7         -4.3828   -3.7214    1.6265 H         1 <0>         0.0864
     36 H8         -3.7979   -2.2726    2.4805 H         1 <0>         0.0757
     37 H9         -6.2055   -2.3687    0.6063 H         1 <0>         0.0920
     38 H10        -6.6011   -0.0653    1.4613 H         1 <0>         0.0849
     39 H11        -5.0816   -0.1568    2.3849 H         1 <0>         0.0702
     40 H12        -4.6548    1.0134    0.2864 H         1 <0>         0.1013
     41 H13        -5.3848   -0.3212   -0.6428 H         1 <0>         0.0737
     42 H14        -6.0282   -2.6946    3.5025 H         1 <0>         0.4002
     43 H15        -8.3494   -3.9254    4.1021 H         1 <0>         0.0927
     44 H16        -8.4187   -2.2363    4.6591 H         1 <0>         0.0938
     45 H17       -10.3197   -3.4393    2.5921 H         1 <0>         0.0797
     46 H18        -9.9021   -0.7172    3.8226 H         1 <0>         0.0592
     47 H19       -10.6017   -1.1506    2.2312 H         1 <0>         0.0729
     48 H20       -12.2487   -0.3333    4.2032 H         1 <0>         0.0647
     49 H21       -12.7262   -1.7458    3.2045 H         1 <0>         0.0664
     50 H22       -11.4026   -1.7303    5.9728 H         1 <0>         0.0641
     51 H23       -12.8364   -2.6594    5.4335 H         1 <0>         0.0642
     52 H24       -11.5404   -4.2625    4.3401 H         1 <0>         0.0654
     53 H25       -10.2764   -3.7178    5.4789 H         1 <0>         0.0644
     54 H26         2.7672   -2.5202    0.9404 H         1 <0>         0.3992
     55 H27         4.4250   -2.4997    1.2122 H         1 <0>         0.4084
@<TRIPOS>BOND
     1    1    6 ar
     2    1    2 ar
     3    1   29 1
     4    2    3 ar
     5    2   30 1
     6    3    4 ar
     7    3   28 1
     8    4    5 ar
     9    4   25 1
    10    5    6 ar
    11    5   31 1
    12    6    7 1
    13    7    8 am
    14    7   32 1
    15    8    9 2
    16    8   10 am
    17   10   15 1
    18   10   11 1
    19   11   12 1
    20   11   33 1
    21   11   34 1
    22   12   13 1
    23   12   35 1
    24   12   36 1
    25   13   14 1
    26   13   16 1
    27   13   37 1
    28   14   15 1
    29   14   38 1
    30   14   39 1
    31   15   40 1
    32   15   41 1
    33   16   17 am
    34   16   42 1
    35   17   18 2
    36   17   19 1
    37   19   20 1
    38   19   43 1
    39   19   44 1
    40   20   24 1
    41   20   21 1
    42   20   45 1
    43   21   22 1
    44   21   46 1
    45   21   47 1
    46   22   23 1
    47   22   48 1
    48   22   49 1
    49   23   24 1
    50   23   50 1
    51   23   51 1
    52   24   52 1
    53   24   53 1
    54   25   26 2
    55   25   27 am
    56   27   54 1
    57   27   55 1
