@<TRIPOS>MOLECULE
ZINC13440530
   37    39     0     0     0
SMALL
USER_CHARGES
2-[methyl-(3-methylbenzofuran-2-carbonyl)amino]benzoic acid
@<TRIPOS>ATOM
      1 C1         -1.7413   -0.8840   -0.0452 C.3       1 <0>        -0.0844
      2 C2         -2.7788    0.2082   -0.0029 C.2       1 <0>        -0.1022
      3 C3         -4.2313    0.0408    0.0205 C.ar      1 <0>        -0.1377
      4 C4         -5.0843   -1.0657    0.0129 C.ar      1 <0>        -0.0627
      5 C5         -6.4372   -0.8779    0.0424 C.ar      1 <0>        -0.1451
      6 C6         -6.9688    0.4041    0.0799 C.ar      1 <0>        -0.0920
      7 C7         -6.1448    1.5085    0.0880 C.ar      1 <0>        -0.1060
      8 C8         -4.7648    1.3425    0.0584 C.ar      1 <0>         0.0701
      9 O1         -3.7312    2.2066    0.0578 O.3       1 <0>        -0.1598
     10 C9         -2.5541    1.5478    0.0218 C.2       1 <0>        -0.0053
     11 C10        -1.2294    2.1831    0.0165 C.2       1 <0>         0.6203
     12 O2         -0.2263    1.4991    0.0946 O.2       1 <0>        -0.5233
     13 N1         -1.1254    3.5238   -0.0750 N.am      1 <0>        -0.5323
     14 C11         0.1942    4.1500   -0.1885 C.3       1 <0>         0.0947
     15 C12        -2.2711    4.3129   -0.0617 C.ar      1 <0>         0.1454
     16 C13        -2.7826    4.7806    1.1419 C.ar      1 <0>        -0.1218
     17 C14        -3.9159    5.5680    1.1523 C.ar      1 <0>        -0.1182
     18 C15        -4.5584    5.8887   -0.0330 C.ar      1 <0>        -0.1288
     19 C16        -4.0693    5.4294   -1.2363 C.ar      1 <0>        -0.0750
     20 C17        -2.9193    4.6358   -1.2640 C.ar      1 <0>        -0.0954
     21 C18        -2.3908    4.1406   -2.5474 C.2       1 <0>         0.4867
     22 O3         -1.3909    3.4505   -2.5670 O.co2     1 <0>        -0.6167
     23 H1         -1.4721   -1.1690    0.9718 H         1 <0>         0.0718
     24 H2         -2.1459   -1.7493   -0.5701 H         1 <0>         0.0641
     25 H3         -0.8554   -0.5235   -0.5680 H         1 <0>         0.0884
     26 H4         -4.6759   -2.0651   -0.0163 H         1 <0>         0.1257
     27 H5         -7.0975   -1.7325    0.0366 H         1 <0>         0.1269
     28 H6         -8.0404    0.5372    0.1026 H         1 <0>         0.1327
     29 H7         -6.5700    2.5008    0.1169 H         1 <0>         0.1325
     30 H8          0.4274    4.3181   -1.2399 H         1 <0>         0.0727
     31 H9          0.1905    5.1035    0.3398 H         1 <0>         0.0616
     32 H10         0.9464    3.4945    0.2502 H         1 <0>         0.0790
     33 H11        -2.2905    4.5312    2.0704 H         1 <0>         0.1171
     34 H12        -4.3073    5.9326    2.0905 H         1 <0>         0.1187
     35 H13        -5.4475    6.5016   -0.0133 H         1 <0>         0.1188
     36 H14        -4.5741    5.6820   -2.1570 H         1 <0>         0.1328
     37 O4         -3.0165    4.4532   -3.6992 O.co2     1 <0>        -0.7535
@<TRIPOS>BOND
     1    1    2 1
     2    1   23 1
     3    1   24 1
     4    1   25 1
     5    2   10 2
     6    2    3 1
     7    3    8 ar
     8    3    4 ar
     9    4    5 ar
    10    4   26 1
    11    5    6 ar
    12    5   27 1
    13    6    7 ar
    14    6   28 1
    15    7    8 ar
    16    7   29 1
    17    8    9 1
    18    9   10 1
    19   10   11 1
    20   11   12 2
    21   11   13 am
    22   13   14 1
    23   13   15 1
    24   14   30 1
    25   14   31 1
    26   14   32 1
    27   15   20 ar
    28   15   16 ar
    29   16   17 ar
    30   16   33 1
    31   17   18 ar
    32   17   34 1
    33   18   19 ar
    34   18   35 1
    35   19   20 ar
    36   19   36 1
    37   20   21 1
    38   21   22 2
    39   21   37 1
