@<TRIPOS>MOLECULE
ZINC11819671
   64    67     0     0     0
SMALL
USER_CHARGES
N-methyl-2-[(2S)-1-(1-naphthylmethyl)-3-oxo-piperazin-2-yl]-N-[(5-propyl-1H-pyrazol-3-yl)methyl]acetamide
@<TRIPOS>ATOM
      1 C1          8.8866   13.6354    2.2656 C.3       1 <0>        -0.1559
      2 C2          7.9104   12.4576    2.2366 C.3       1 <0>        -0.1162
      3 C3          6.5582   12.9019    2.7977 C.3       1 <0>        -0.0645
      4 C4          5.5968   11.7418    2.7692 C.2       1 <0>         0.1007
      5 C5          4.8403   11.3582    1.7148 C.2       1 <0>        -0.2638
      6 C6          4.0891   10.2453    2.1063 C.2       1 <0>         0.0423
      7 N1          4.3903    9.9653    3.3484 N.2       1 <0>        -0.2626
      8 N2          5.3400   10.8960    3.7889 N.pl3     1 <0>        -0.4700
      9 H1          5.7545   10.9280    4.6984 H         1 <0>         0.4461
     10 C7          3.1072    9.4943    1.2443 C.3       1 <0>         0.1939
     11 N3          3.7778    8.3484    0.6250 N.am      1 <0>        -0.5846
     12 C8          4.4317    8.4985   -0.6774 C.3       1 <0>         0.0606
     13 C9          3.7932    7.1562    1.2534 C.2       1 <0>         0.5082
     14 O1          3.2518    7.0320    2.3316 O.2       1 <0>        -0.5377
     15 C10         4.4829    5.9775    0.6163 C.3       1 <0>        -0.1677
     16 C11         4.3431    4.7534    1.5234 C.3       1 <0>         0.0397
     17 H2          4.7982    3.8906    1.0370 H         1 <0>         0.1753
     18 C12         5.0414    5.0166    2.8275 C.2       1 <0>         0.5226
     19 O2          6.1257    5.5595    2.8068 O.2       1 <0>        -0.4976
     20 N4          4.5177    4.6769    4.0100 N.am      1 <0>        -0.7094
     21 C13         3.2049    4.0526    4.1467 C.3       1 <0>         0.0867
     22 C14         2.7647    3.4588    2.8074 C.3       1 <0>        -0.0215
     23 C15         2.2452    4.0762    0.5220 C.3       1 <0>         0.0416
     24 C16         0.8149    3.7100    0.8243 C.ar      1 <0>        -0.1587
     25 C17         0.4552    2.4032    0.9506 C.ar      1 <0>        -0.0613
     26 C18        -0.8620    2.0455    1.2303 C.ar      1 <0>        -0.1325
     27 C19        -1.8287    2.9922    1.3800 C.ar      1 <0>        -0.0566
     28 C20        -1.4942    4.3517    1.2623 C.ar      1 <0>        -0.0568
     29 C21        -0.1542    4.7157    0.9777 C.ar      1 <0>        -0.0296
     30 C22         0.1789    6.0755    0.8540 C.ar      1 <0>        -0.1435
     31 C23        -0.7866    7.0220    1.0087 C.ar      1 <0>        -0.0757
     32 C24        -2.1044    6.6641    1.2882 C.ar      1 <0>        -0.1137
     33 C25        -2.4638    5.3577    1.4150 C.ar      1 <0>        -0.0862
     34 H3          8.4913   14.4499    1.6586 H         1 <0>         0.0592
     35 H4          9.0139   13.9766    3.2929 H         1 <0>         0.0569
     36 H5          9.8499   13.3188    1.8658 H         1 <0>         0.0601
     37 H6          8.3057   11.6431    2.8436 H         1 <0>         0.0604
     38 H7          7.7831   12.1163    1.2093 H         1 <0>         0.0676
     39 H8          6.1629   13.7164    2.1907 H         1 <0>         0.0949
     40 H9          6.6855   13.2432    3.8251 H         1 <0>         0.0786
     41 H10         4.8189   11.8295    0.7433 H         1 <0>         0.1474
     42 H11         2.7262   10.1562    0.4666 H         1 <0>         0.1092
     43 H12         2.2792    9.1419    1.8593 H         1 <0>         0.1034
     44 H13         3.7173    8.2767   -1.4703 H         1 <0>         0.0744
     45 H14         4.7910    9.5216   -0.7878 H         1 <0>         0.0902
     46 H15         5.2731    7.8087   -0.7431 H         1 <0>         0.0779
     47 H16         5.5392    6.2070    0.4760 H         1 <0>         0.1550
     48 H17         4.0252    5.7676   -0.3504 H         1 <0>         0.1314
     49 H18         5.0327    4.8534    4.8128 H         1 <0>         0.4246
     50 H19         3.2571    3.2605    4.8937 H         1 <0>         0.1259
     51 H20         2.4795    4.8017    4.4641 H         1 <0>         0.0976
     52 H21         1.7202    3.1533    2.8685 H         1 <0>         0.1513
     53 H22         3.3867    2.5962    2.5683 H         1 <0>         0.1396
     54 H23         2.7586    3.2143    0.0958 H         1 <0>         0.1432
     55 H24         2.2663    4.9007   -0.1907 H         1 <0>         0.1317
     56 H25         1.2022    1.6322    0.8326 H         1 <0>         0.1351
     57 H26        -1.1209    1.0013    1.3255 H         1 <0>         0.1386
     58 H27        -2.8465    2.6999    1.5922 H         1 <0>         0.1405
     59 H28         1.1957    6.3678    0.6369 H         1 <0>         0.1113
     60 H29        -0.5280    8.0662    0.9131 H         1 <0>         0.1304
     61 H30        -2.8513    7.4352    1.4064 H         1 <0>         0.1344
     62 H31        -3.4887    5.0953    1.6321 H         1 <0>         0.1382
     63 N5          2.9113    4.5030    1.7736 N.4       1 <0>        -0.3972
     64 H32         2.4723    5.3693    2.1071 H         1 <0>         0.4370
@<TRIPOS>BOND
     1    1    2 1
     2    1   34 1
     3    1   35 1
     4    1   36 1
     5    2    3 1
     6    2   37 1
     7    2   38 1
     8    3    4 1
     9    3   39 1
    10    3   40 1
    11    4    8 1
    12    4    5 2
    13    5    6 1
    14    5   41 1
    15    6    7 2
    16    6   10 1
    17    7    8 1
    18    8    9 1
    19   10   11 1
    20   10   42 1
    21   10   43 1
    22   11   12 1
    23   11   13 am
    24   12   44 1
    25   12   45 1
    26   12   46 1
    27   13   14 2
    28   13   15 1
    29   15   16 1
    30   15   47 1
    31   15   48 1
    32   16   17 1
    33   16   18 1
    34   16   63 1
    35   18   19 2
    36   18   20 am
    37   20   21 1
    38   20   49 1
    39   21   22 1
    40   21   50 1
    41   21   51 1
    42   22   52 1
    43   22   53 1
    44   22   63 1
    45   23   24 1
    46   23   54 1
    47   23   55 1
    48   23   63 1
    49   24   29 ar
    50   24   25 ar
    51   25   26 ar
    52   25   56 1
    53   26   27 ar
    54   26   57 1
    55   27   28 ar
    56   27   58 1
    57   28   33 ar
    58   28   29 ar
    59   29   30 ar
    60   30   31 ar
    61   30   59 1
    62   31   32 ar
    63   31   60 1
    64   32   33 ar
    65   32   61 1
    66   33   62 1
    67   63   64 1
