@<TRIPOS>MOLECULE
ZINC21323028
   54    56     0     0     0
SMALL
USER_CHARGES
2-[[4-amino-5-[(N'E)-N'-[1-(4-bromophenyl)ethylidene]hydrazino]-1,2,4-triazol-3-yl]sulfanyl]-N-(2,4-dimethoxyphenyl)acetamide
@<TRIPOS>ATOM
      1 C1        -12.7396    2.4198   -0.9299 C.3       1 <0>        -0.1615
      2 C2        -12.0136    3.7386   -0.8609 C.2       1 <0>         0.1148
      3 N1        -10.7197    3.7627   -0.7535 N.2       1 <0>        -0.1864
      4 N2         -9.9986    2.5626   -0.7017 N.pl3     1 <0>        -0.5577
      5 C3         -8.6162    2.5883   -0.5869 C.2       1 <0>         0.4855
      6 N3         -7.8685    3.6630   -0.5182 N.2       1 <0>        -0.3124
      7 N4         -6.5331    3.2547   -0.4047 N.2       1 <0>        -0.3037
      8 C4         -6.5079    1.9433   -0.4168 C.2       1 <0>         0.1742
      9 N5         -7.7944    1.4973   -0.5260 N.pl3     1 <0>        -0.2621
     10 N6         -8.1904    0.1906   -0.5667 N.3       1 <0>        -0.7778
     11 S1         -5.0680    0.9340   -0.3043 S.3       1 <0>         0.0747
     12 C5         -3.7053    2.1254   -0.1841 C.3       1 <0>        -0.1442
     13 C6         -2.3974    1.3839   -0.0808 C.2       1 <0>         0.5375
     14 O1         -2.3857    0.1710   -0.0876 O.2       1 <0>        -0.5146
     15 N7         -1.2408    2.0684    0.0192 N.am      1 <0>        -0.6627
     16 C7         -0.0163    1.3837   -0.0015 C.ar      1 <0>         0.0875
     17 C8          0.0753    0.1438   -0.6162 C.ar      1 <0>        -0.0556
     18 C9          1.2825   -0.5281   -0.6416 C.ar      1 <0>        -0.2219
     19 C10         2.4052    0.0358   -0.0532 C.ar      1 <0>         0.1516
     20 C11         2.3186    1.2753    0.5625 C.ar      1 <0>        -0.2237
     21 C12         1.1098    1.9511    0.5901 C.ar      1 <0>         0.1417
     22 O2          1.0229    3.1667    1.1929 O.3       1 <0>        -0.3149
     23 C13         2.2178    3.6873    1.7787 C.3       1 <0>         0.0237
     24 O3          3.5918   -0.6274   -0.0807 O.3       1 <0>        -0.3161
     25 C14         3.6093   -1.8992   -0.7320 C.3       1 <0>         0.0229
     26 C15       -12.7724    5.0014   -0.9155 C.ar      1 <0>        -0.0246
     27 C16       -14.1641    4.9792   -1.0369 C.ar      1 <0>        -0.0919
     28 C17       -14.8681    6.1642   -1.0825 C.ar      1 <0>        -0.0928
     29 C18       -14.1979    7.3742   -1.0189 C.ar      1 <0>        -0.0793
     30 C19       -12.8183    7.4035   -0.9038 C.ar      1 <0>        -0.0918
     31 C20       -12.1024    6.2260   -0.8518 C.ar      1 <0>        -0.0754
     32 Br1       -15.1712    8.9940   -1.0889 Br        1 <0>        -0.0456
     33 H1        -13.8210    2.6008   -1.0183 H         1 <0>         0.0937
     34 H2        -12.5380    1.8420   -0.0158 H         1 <0>         0.0806
     35 H3        -12.3897    1.8540   -1.8059 H         1 <0>         0.0806
     36 H4        -10.5285    1.6000   -0.7520 H         1 <0>         0.4113
     37 H5         -7.4415   -0.6131   -0.5100 H         1 <0>         0.4501
     38 H6         -9.2582   -0.0580   -0.6562 H         1 <0>         0.4359
     39 H7         -3.6956    2.7630   -1.0804 H         1 <0>         0.1330
     40 H8         -3.8434    2.7515    0.7097 H         1 <0>         0.1322
     41 H9         -1.2567    3.1639    0.1171 H         1 <0>         0.4444
     42 H10        -0.7972   -0.2968   -1.0755 H         1 <0>         0.1561
     43 H11         1.3522   -1.4935   -1.1206 H         1 <0>         0.1343
     44 H12         3.1932    1.7137    1.0200 H         1 <0>         0.1415
     45 H13         2.0081    4.6690    2.2284 H         1 <0>         0.1053
     46 H14         2.9892    3.7969    1.0022 H         1 <0>         0.0599
     47 H15         2.5759    2.9967    2.5564 H         1 <0>         0.0597
     48 H16         4.6232   -2.3229   -0.6818 H         1 <0>         0.1032
     49 H17         3.3151   -1.7761   -1.7847 H         1 <0>         0.0586
     50 H18         2.9031   -2.5775   -0.2308 H         1 <0>         0.0589
     51 H19       -14.6877    4.0362   -1.0907 H         1 <0>         0.1400
     52 H20       -15.9443    6.1484   -1.1722 H         1 <0>         0.1385
     53 H21       -12.3018    8.3507   -0.8544 H         1 <0>         0.1385
     54 H22       -11.0265    6.2502   -0.7617 H         1 <0>         0.1459
@<TRIPOS>BOND
     1    1    2 1
     2    1   33 1
     3    1   34 1
     4    1   35 1
     5    2    3 2
     6    2   26 1
     7    3    4 1
     8    4    5 1
     9    4   36 1
    10    5    9 1
    11    5    6 2
    12    6    7 1
    13    7    8 2
    14    8    9 1
    15    8   11 1
    16    9   10 1
    17   10   37 1
    18   10   38 1
    19   11   12 1
    20   12   13 1
    21   12   39 1
    22   12   40 1
    23   13   14 2
    24   13   15 am
    25   15   16 1
    26   15   41 1
    27   16   21 ar
    28   16   17 ar
    29   17   18 ar
    30   17   42 1
    31   18   19 ar
    32   18   43 1
    33   19   20 ar
    34   19   24 1
    35   20   21 ar
    36   20   44 1
    37   21   22 1
    38   22   23 1
    39   23   45 1
    40   23   46 1
    41   23   47 1
    42   24   25 1
    43   25   48 1
    44   25   49 1
    45   25   50 1
    46   26   31 ar
    47   26   27 ar
    48   27   28 ar
    49   27   51 1
    50   28   29 ar
    51   28   52 1
    52   29   30 ar
    53   29   32 1
    54   30   31 ar
    55   30   53 1
    56   31   54 1
