@<TRIPOS>MOLECULE
ZINC44933629
   41    43     0     0     0
SMALL
USER_CHARGES

@<TRIPOS>ATOM
      1 C1         -1.3524   -0.1346    0.0125 C.3       1 <0>        -0.1841
      2 C2          0.1412    0.1963   -0.0123 C.3       1 <0>         0.0694
      3 C3          0.7889   -0.3687    1.2511 C.3       1 <0>        -0.1561
      4 C4          2.0324    0.4772    1.6437 C.3       1 <0>        -0.5815
      5 S1          1.3880    2.1658    1.2644 S.o2      1 <0>         2.3774
      6 O1          2.4564    2.9809    0.8027 O.2       1 <0>        -0.9033
      7 O2          0.5804    2.6114    2.3454 O.2       1 <0>        -0.8961
      8 C5          0.3067    1.7216   -0.1581 C.3       1 <0>        -0.6276
      9 N1          0.7471   -0.4568   -1.1803 N.4       1 <0>        -0.5050
     10 C6          0.0320   -0.0470   -2.3963 C.3       1 <0>        -0.0086
     11 C7          0.7401   -0.6244   -3.6235 C.3       1 <0>         0.0446
     12 H1          0.7526   -1.7125   -3.5598 H         1 <0>         0.0996
     13 C8         -0.0014   -0.1920   -4.8964 C.3       1 <0>         0.0996
     14 N2          0.7426   -0.7283   -6.0490 N.pl3     1 <0>        -0.7525
     15 C9          2.1439   -0.6505   -6.0146 C.ar      1 <0>         0.1417
     16 C10         2.8801   -0.8682   -7.1683 C.ar      1 <0>        -0.1493
     17 C11         4.2604   -0.7939   -7.1289 C.ar      1 <0>        -0.0900
     18 C12         4.9046   -0.5035   -5.9405 C.ar      1 <0>        -0.1292
     19 C13         4.1747   -0.2842   -4.7872 C.ar      1 <0>        -0.0979
     20 C14         2.7902   -0.3545   -4.8176 C.ar      1 <0>         0.0415
     21 O3          2.0812   -0.1322   -3.6786 O.3       1 <0>        -0.3263
     22 H2         -1.8120    0.1897   -0.9211 H         1 <0>         0.0933
     23 H3         -1.4844   -1.2104    0.1279 H         1 <0>         0.0946
     24 H4         -1.8250    0.3811    0.8485 H         1 <0>         0.1171
     25 H5          0.0664   -0.3478    2.0670 H         1 <0>         0.1394
     26 H6          1.0960   -1.3985    1.0693 H         1 <0>         0.1244
     27 H7          2.2675    0.3702    2.7026 H         1 <0>         0.1662
     28 H8          2.8928    0.2312    1.0213 H         1 <0>         0.1471
     29 H9          0.7928    1.9673   -1.1022 H         1 <0>         0.1615
     30 H10        -0.6581    2.2226   -0.0791 H         1 <0>         0.1789
     31 H11         1.7162   -0.1852   -1.2524 H         1 <0>         0.4352
     32 H12        -0.9917   -0.4196   -2.3587 H         1 <0>         0.1601
     33 H13         0.0205    1.0410   -2.4618 H         1 <0>         0.1481
     34 H14        -1.0140   -0.5954   -4.8897 H         1 <0>         0.1045
     35 H15        -0.0363    0.8960   -4.9526 H         1 <0>         0.0809
     36 H16         0.2803   -1.1219   -6.8054 H         1 <0>         0.4166
     37 H17         2.3769   -1.0959   -8.0964 H         1 <0>         0.1313
     38 H18         4.8357   -0.9631   -8.0271 H         1 <0>         0.1333
     39 H19         5.9828   -0.4482   -5.9131 H         1 <0>         0.1349
     40 H20         4.6833   -0.0581   -3.8616 H         1 <0>         0.1330
     41 H21         0.6855   -1.4584   -1.0753 H         1 <0>         0.4332
@<TRIPOS>BOND
     1    1    2 1
     2    1   22 1
     3    1   23 1
     4    1   24 1
     5    2    8 1
     6    2    3 1
     7    2    9 1
     8    3    4 1
     9    3   25 1
    10    3   26 1
    11    4    5 1
    12    4   27 1
    13    4   28 1
    14    5    6 2
    15    5    7 2
    16    5    8 1
    17    8   29 1
    18    8   30 1
    19    9   10 1
    20    9   31 1
    21    9   41 1
    22   10   11 1
    23   10   32 1
    24   10   33 1
    25   11   12 1
    26   11   21 1
    27   11   13 1
    28   13   14 1
    29   13   34 1
    30   13   35 1
    31   14   15 1
    32   14   36 1
    33   15   20 ar
    34   15   16 ar
    35   16   17 ar
    36   16   37 1
    37   17   18 ar
    38   17   38 1
    39   18   19 ar
    40   18   39 1
    41   19   20 ar
    42   19   40 1
    43   20   21 1
