@<TRIPOS>MOLECULE
ZINC40569206
   59    61     0     0     0
SMALL
USER_CHARGES

@<TRIPOS>ATOM
      1 C1         -2.3685    1.7919   -0.4568 C.3       1 <0>        -0.1539
      2 C2         -2.5118    0.2733   -0.3370 C.3       1 <0>        -0.1229
      3 C3         -1.1355   -0.3516   -0.0999 C.3       1 <0>        -0.0958
      4 C4         -1.2890   -1.8338    0.1256 C.2       1 <0>         0.1958
      5 C5         -1.4490   -2.3031    1.3815 C.2       1 <0>        -0.2307
      6 C6         -1.5934   -3.6892    1.5980 C.2       1 <0>         0.2079
      7 C7         -1.5679   -4.5407    0.5138 C.2       1 <0>        -0.2545
      8 C8         -1.3991   -4.0083   -0.7708 C.2       1 <0>         0.5434
      9 O1         -1.3745   -4.7505   -1.7403 O.2       1 <0>        -0.5007
     10 N1         -1.2700   -2.6790   -0.9383 N.am      1 <0>        -0.4928
     11 C9         -1.1000   -2.1355   -2.2881 C.3       1 <0>         0.0845
     12 C10         0.3919   -2.0033   -2.6005 C.3       1 <0>         0.0595
     13 O2          0.9866   -3.3020   -2.6427 O.3       1 <0>        -0.5536
     14 C11        -1.7198   -6.0256    0.6988 C.3       1 <0>         0.1187
     15 H1         -0.9943   -6.5440    0.0718 H         1 <0>         0.1086
     16 C12        -1.4884   -6.3944    2.1379 C.2       1 <0>        -0.2562
     17 C13        -1.5178   -5.4587    3.1160 C.2       1 <0>         0.4241
     18 O3         -1.7539   -4.1615    2.8524 O.3       1 <0>        -0.2385
     19 N2         -1.3009   -5.8458    4.4148 N.pl3     1 <0>        -0.8312
     20 C14        -1.2325   -7.7610    2.4805 C.1       1 <0>         0.2746
     21 N3         -1.0295   -8.8452    2.7523 N.1       1 <0>        -0.4411
     22 C15        -3.1123   -6.4391    0.2977 C.ar      1 <0>        -0.1003
     23 C16        -4.2069   -5.9006    0.9488 C.ar      1 <0>        -0.1192
     24 C17        -5.4875   -6.2789    0.5815 C.ar      1 <0>         0.0601
     25 C18        -5.6727   -7.2017   -0.4437 C.ar      1 <0>         0.1390
     26 C19        -4.5753   -7.7401   -1.0948 C.ar      1 <0>        -0.2637
     27 C20        -3.2944   -7.3547   -0.7275 C.ar      1 <0>         0.1572
     28 O4         -2.2166   -7.8786   -1.3701 O.3       1 <0>        -0.2982
     29 C21        -2.4777   -8.8162   -2.4164 C.3       1 <0>         0.0284
     30 O5         -6.9295   -7.5746   -0.8054 O.3       1 <0>        -0.3029
     31 C22        -7.0441   -8.5258   -1.8655 C.3       1 <0>         0.0255
     32 O6         -6.5642   -5.7488    1.2230 O.3       1 <0>        -0.3067
     33 C23        -6.2998   -4.8080    2.2656 C.3       1 <0>         0.0284
     34 H2         -3.3490    2.2372   -0.6257 H         1 <0>         0.0610
     35 H3         -1.9423    2.1904    0.4639 H         1 <0>         0.0594
     36 H4         -1.7122    2.0300   -1.2939 H         1 <0>         0.0567
     37 H5         -3.1681    0.0352    0.5000 H         1 <0>         0.0746
     38 H6         -2.9380   -0.1251   -1.2577 H         1 <0>         0.0661
     39 H7         -0.5036   -0.1802   -0.9714 H         1 <0>         0.0877
     40 H8         -0.6760    0.1037    0.7773 H         1 <0>         0.1023
     41 H9         -1.4668   -1.6194    2.2173 H         1 <0>         0.1582
     42 H10        -1.5646   -2.8060   -3.0109 H         1 <0>         0.1125
     43 H11        -1.5718   -1.1546   -2.3468 H         1 <0>         0.1069
     44 H12         0.5189   -1.5140   -3.5662 H         1 <0>         0.0644
     45 H13         0.8741   -1.4078   -1.8253 H         1 <0>         0.0494
     46 H14         1.9340   -3.2946   -2.8364 H         1 <0>         0.3797
     47 H15        -1.1297   -6.7781    4.6209 H         1 <0>         0.4261
     48 H16        -1.3188   -5.1871    5.1267 H         1 <0>         0.4109
     49 H17        -4.0630   -5.1848    1.7446 H         1 <0>         0.1335
     50 H18        -4.7168   -8.4567   -1.8904 H         1 <0>         0.1409
     51 H19        -1.5342   -9.1554   -2.8441 H         1 <0>         0.1002
     52 H20        -3.0211   -9.6701   -2.0119 H         1 <0>         0.0510
     53 H21        -3.0769   -8.3382   -3.1914 H         1 <0>         0.0537
     54 H22        -8.0972   -8.7354   -2.0534 H         1 <0>         0.1018
     55 H23        -6.5877   -8.1203   -2.7685 H         1 <0>         0.0542
     56 H24        -6.5349   -9.4474   -1.5835 H         1 <0>         0.0541
     57 H25        -7.2421   -4.4643    2.6924 H         1 <0>         0.0992
     58 H26        -5.7017   -5.2848    3.0421 H         1 <0>         0.0514
     59 H27        -5.7540   -3.9573    1.8575 H         1 <0>         0.0512
@<TRIPOS>BOND
     1    1    2 1
     2    1   34 1
     3    1   35 1
     4    1   36 1
     5    2    3 1
     6    2   37 1
     7    2   38 1
     8    3    4 1
     9    3   39 1
    10    3   40 1
    11    4   10 1
    12    4    5 2
    13    5    6 1
    14    5   41 1
    15    6   18 1
    16    6    7 2
    17    7    8 1
    18    7   14 1
    19    8    9 2
    20    8   10 am
    21   10   11 1
    22   11   12 1
    23   11   42 1
    24   11   43 1
    25   12   13 1
    26   12   44 1
    27   12   45 1
    28   13   46 1
    29   14   15 1
    30   14   16 1
    31   14   22 1
    32   16   17 2
    33   16   20 1
    34   17   18 1
    35   17   19 1
    36   19   47 1
    37   19   48 1
    38   20   21 3
    39   22   27 ar
    40   22   23 ar
    41   23   24 ar
    42   23   49 1
    43   24   25 ar
    44   24   32 1
    45   25   26 ar
    46   25   30 1
    47   26   27 ar
    48   26   50 1
    49   27   28 1
    50   28   29 1
    51   29   51 1
    52   29   52 1
    53   29   53 1
    54   30   31 1
    55   31   54 1
    56   31   55 1
    57   31   56 1
    58   32   33 1
    59   33   57 1
    60   33   58 1
    61   33   59 1
