@<TRIPOS>MOLECULE
ZINC16740602
   51    52     0     0     0
SMALL
USER_CHARGES
(2S)-2-(3-methoxypropylamino)-4-oxo-4-[[4-(thiazol-2-ylsulfamoyl)phenyl]amino]butanoic acid
@<TRIPOS>ATOM
      1 C1         -0.7269    4.8860    1.6006 C.3       1 <0>         0.0281
      2 O1         -0.1544    4.1389    0.5254 O.3       1 <0>        -0.3901
      3 C2         -0.2383    2.7222    0.6927 C.3       1 <0>         0.0631
      4 C3          0.4021    2.0278   -0.5109 C.3       1 <0>        -0.1437
      5 C4          0.3123    0.5109   -0.3318 C.3       1 <0>         0.0102
      6 N1          0.9272   -0.1558   -1.4873 N.4       1 <0>        -0.5177
      7 C5          0.8592   -1.6168   -1.3498 C.3       1 <0>         0.0034
      8 H1         -0.0811   -1.8606   -0.8337 H         1 <0>         0.1397
      9 C6          0.9063   -2.2623   -2.7361 C.3       1 <0>        -0.1485
     10 C7         -0.3269   -1.8771   -3.5118 C.2       1 <0>         0.5136
     11 O2         -1.1615   -1.1571   -3.0057 O.2       1 <0>        -0.5353
     12 N2         -0.5026   -2.3326   -4.7681 N.am      1 <0>        -0.6784
     13 C8         -1.6962   -2.0669   -5.4482 C.ar      1 <0>         0.1979
     14 C9         -2.8938   -1.9933   -4.7491 C.ar      1 <0>        -0.1351
     15 C10        -4.0695   -1.7256   -5.4226 C.ar      1 <0>        -0.0249
     16 C11        -4.0565   -1.5419   -6.7931 C.ar      1 <0>        -0.6964
     17 C12        -2.8664   -1.6202   -7.4929 C.ar      1 <0>         0.0101
     18 C13        -1.6865   -1.8819   -6.8245 C.ar      1 <0>        -0.1553
     19 S1         -5.5597   -1.2078   -7.6496 S.o2      1 <0>         2.6169
     20 O3         -6.4528   -0.6451   -6.6983 O.2       1 <0>        -1.0007
     21 O4         -5.2026   -0.5360   -8.8497 O.2       1 <0>        -0.9343
     22 N3         -6.2028   -2.6668   -8.0972 N.2       1 <0>        -0.9396
     23 C14        -6.6259   -3.5640   -7.1292 C.2       1 <0>         0.4016
     24 N4         -6.5943   -3.4424   -5.8158 N.pl3     1 <0>        -0.6166
     25 C15        -7.0467   -4.4018   -5.0302 C.2       1 <0>         0.0445
     26 C16        -7.5378   -5.5270   -5.6020 C.2       1 <0>        -0.2236
     27 S2         -7.3266   -5.1396   -7.3335 S.3       1 <0>         0.2001
     28 C17         2.0287   -2.0992   -0.5310 C.2       1 <0>         0.4588
     29 O5          2.8361   -1.3073   -0.1057 O.co2     1 <0>        -0.6092
     30 O6          2.1736   -3.4087   -0.2742 O.co2     1 <0>        -0.6987
     31 H2         -0.6222    5.9618    1.3962 H         1 <0>         0.0925
     32 H3         -0.2061    4.6383    2.5373 H         1 <0>         0.0467
     33 H4         -1.7931    4.6330    1.6960 H         1 <0>         0.0453
     34 H5          0.2928    2.4293    1.6104 H         1 <0>         0.0614
     35 H6         -1.2943    2.4239    0.7691 H         1 <0>         0.0577
     36 H7         -0.1290    2.3208   -1.4286 H         1 <0>         0.0890
     37 H8          1.4581    2.3261   -0.5873 H         1 <0>         0.0946
     38 H9          0.8433    0.2180    0.5859 H         1 <0>         0.1322
     39 H10        -0.7437    0.2126   -0.2555 H         1 <0>         0.1219
     40 H11         0.3962    0.1372   -2.4050 H         1 <0>         0.4309
     41 H12         1.8009   -1.9134   -3.2728 H         1 <0>         0.1200
     42 H13         0.9458   -3.3565   -2.6300 H         1 <0>         0.1533
     43 H14         0.2924   -2.9133   -5.2588 H         1 <0>         0.4505
     44 H15        -2.9052   -2.1407   -3.6792 H         1 <0>         0.1454
     45 H16        -5.0006   -1.6638   -4.8789 H         1 <0>         0.1274
     46 H17        -2.8596   -1.4762   -8.5632 H         1 <0>         0.1507
     47 H18        -0.7573   -1.9422   -7.3715 H         1 <0>         0.1420
     48 H19        -7.0214   -4.2940   -3.9559 H         1 <0>         0.1944
     49 H20        -7.9445   -6.4139   -5.1392 H         1 <0>         0.2181
     50 H21        -6.1858   -2.5296   -5.3576 H         1 <0>         0.4404
     51 H22         1.9832    0.1425   -1.5636 H         1 <0>         0.4460
@<TRIPOS>BOND
     1    1    2 1
     2    1   31 1
     3    1   32 1
     4    1   33 1
     5    2    3 1
     6    3    4 1
     7    3   34 1
     8    3   35 1
     9    4    5 1
    10    4   36 1
    11    4   37 1
    12    5    6 1
    13    5   38 1
    14    5   39 1
    15    6    7 1
    16    6   40 1
    17    6   51 1
    18    7    8 1
    19    7    9 1
    20    7   28 1
    21    9   10 1
    22    9   41 1
    23    9   42 1
    24   10   11 2
    25   10   12 am
    26   12   13 1
    27   12   43 1
    28   13   18 ar
    29   13   14 ar
    30   14   15 ar
    31   14   44 1
    32   15   16 ar
    33   15   45 1
    34   16   17 ar
    35   16   19 1
    36   17   18 ar
    37   17   46 1
    38   18   47 1
    39   19   20 2
    40   19   21 2
    41   19   22 1
    42   22   23 2
    43   23   27 1
    44   23   24 1
    45   24   25 1
    46   24   50 1
    47   25   26 2
    48   25   48 1
    49   26   27 1
    50   26   49 1
    51   28   29 2
    52   28   30 1
