@<TRIPOS>MOLECULE
ZINC63203340
   58    61     0     0     0
SMALL
USER_CHARGES

@<TRIPOS>ATOM
      1 C1          1.1301    0.3269    0.1040 C.3       1 <0>        -0.1115
      2 C2          0.0048   -0.6698   -0.0020 C.ar      1 <0>        -0.0921
      3 C3         -0.1593   -1.4067   -1.1586 C.ar      1 <0>        -0.1111
      4 C4         -1.1919   -2.3212   -1.2568 C.ar      1 <0>        -0.1076
      5 C5         -2.0630   -2.5013   -0.1981 C.ar      1 <0>        -0.1106
      6 C6         -1.9041   -1.7678    0.9613 C.ar      1 <0>        -0.0685
      7 C7         -0.8649   -0.8525    1.0651 C.ar      1 <0>         0.1216
      8 N1         -0.6976   -0.1119    2.2405 N.am      1 <0>        -0.6578
      9 C8         -0.7631   -0.7256    3.4387 C.2       1 <0>         0.5044
     10 O1         -0.9052   -1.9287    3.4969 O.2       1 <0>        -0.4849
     11 C9         -0.6599    0.0831    4.7061 C.3       1 <0>         0.1559
     12 H1         -1.4696    0.8121    4.7390 H         1 <0>         0.1324
     13 C10         0.6847    0.8126    4.7375 C.3       1 <0>        -0.1059
     14 C11         0.7380    1.7160    5.9425 C.2       1 <0>         0.0748
     15 C12         1.2796    1.4315    7.1488 C.ar      1 <0>        -0.1626
     16 C13         1.9542    0.2411    7.6801 C.ar      1 <0>        -0.0188
     17 C14         2.3981    0.2539    8.9575 C.ar      1 <0>        -0.1507
     18 C15         2.2301    1.3728    9.7849 C.ar      1 <0>         0.0464
     19 C16         1.6206    2.5029    9.3684 C.ar      1 <0>        -0.2042
     20 C17         1.1152    2.6001    8.0426 C.ar      1 <0>         0.3379
     21 N2          0.4960    3.5693    7.4134 N.pl3     1 <0>        -0.5774
     22 C18         0.2027    3.1267    6.0457 C.3       1 <0>         0.0694
     23 N3         -0.7586   -0.8089    5.8640 N.am      1 <0>        -0.6929
     24 C19        -1.1917   -0.3314    7.0476 C.2       1 <0>         0.6573
     25 O2         -1.5004    0.8390    7.1543 O.2       1 <0>        -0.5658
     26 O3         -1.2825   -1.1515    8.1120 O.3       1 <0>        -0.2934
     27 C20        -1.8274   -0.6561    9.2547 C.ar      1 <0>         0.0962
     28 C21        -3.1896   -0.4026    9.3216 C.ar      1 <0>        -0.1172
     29 C22        -3.7410    0.1009   10.4839 C.ar      1 <0>        -0.0999
     30 C23        -2.9363    0.3520   11.5799 C.ar      1 <0>        -0.1081
     31 C24        -1.5783    0.1006   11.5155 C.ar      1 <0>        -0.1050
     32 C25        -1.0231   -0.4087   10.3575 C.ar      1 <0>        -0.1179
     33 C26        -2.8542   -1.9643    2.1145 C.3       1 <0>        -0.1062
     34 H2          2.0157   -0.1662    0.5047 H         1 <0>         0.0736
     35 H3          1.3538    0.7288   -0.8842 H         1 <0>         0.0749
     36 H4          0.8347    1.1391    0.7682 H         1 <0>         0.0569
     37 H5          0.5194   -1.2684   -1.9872 H         1 <0>         0.1302
     38 H6         -1.3186   -2.8957   -2.1625 H         1 <0>         0.1295
     39 H7         -2.8688   -3.2160   -0.2780 H         1 <0>         0.1293
     40 H8         -0.5345    0.8431    2.1930 H         1 <0>         0.4085
     41 H9          1.4926    0.0831    4.7943 H         1 <0>         0.1236
     42 H10         0.7961    1.4083    3.8315 H         1 <0>         0.1279
     43 H11         2.0936   -0.6322    7.0602 H         1 <0>         0.1551
     44 H12         2.8947   -0.6209    9.3505 H         1 <0>         0.1567
     45 H13         2.6034    1.3288   10.7974 H         1 <0>         0.1596
     46 H14         1.5159    3.3376   10.0457 H         1 <0>         0.1590
     47 H15         0.7034    3.7723    5.3241 H         1 <0>         0.1697
     48 H16        -0.8736    3.1337    5.8734 H         1 <0>         0.1750
     49 H17        -0.5122   -1.7432    5.7789 H         1 <0>         0.4274
     50 H18        -3.8185   -0.5982    8.4657 H         1 <0>         0.1282
     51 H19        -4.8014    0.2988   10.5364 H         1 <0>         0.1349
     52 H20        -3.3693    0.7456   12.4877 H         1 <0>         0.1338
     53 H21        -0.9517    0.2979   12.3728 H         1 <0>         0.1352
     54 H22         0.0370   -0.6095   10.3093 H         1 <0>         0.1275
     55 H23        -2.5401   -2.8278    2.7010 H         1 <0>         0.0918
     56 H24        -2.8489   -1.0753    2.7452 H         1 <0>         0.0482
     57 H25        -3.8608   -2.1321    1.7314 H         1 <0>         0.0631
     58 H26         0.2727    4.4356    7.7882 H         1 <0>         0.4542
@<TRIPOS>BOND
     1    1    2 1
     2    1   34 1
     3    1   35 1
     4    1   36 1
     5    2    7 ar
     6    2    3 ar
     7    3    4 ar
     8    3   37 1
     9    4    5 ar
    10    4   38 1
    11    5    6 ar
    12    5   39 1
    13    6    7 ar
    14    6   33 1
    15    7    8 1
    16    8    9 am
    17    8   40 1
    18    9   10 2
    19    9   11 1
    20   11   12 1
    21   11   13 1
    22   11   23 1
    23   13   14 1
    24   13   41 1
    25   13   42 1
    26   14   22 1
    27   14   15 2
    28   15   20 ar
    29   15   16 ar
    30   16   17 ar
    31   16   43 1
    32   17   18 ar
    33   17   44 1
    34   18   19 ar
    35   18   45 1
    36   19   20 ar
    37   19   46 1
    38   20   21 2
    39   21   22 1
    40   21   58 1
    41   22   47 1
    42   22   48 1
    43   23   24 am
    44   23   49 1
    45   24   25 2
    46   24   26 1
    47   26   27 1
    48   27   32 ar
    49   27   28 ar
    50   28   29 ar
    51   28   50 1
    52   29   30 ar
    53   29   51 1
    54   30   31 ar
    55   30   52 1
    56   31   32 ar
    57   31   53 1
    58   32   54 1
    59   33   55 1
    60   33   56 1
    61   33   57 1
