@<TRIPOS>MOLECULE
ZINC67140682
   46    49     0     0     0
SMALL
USER_CHARGES

@<TRIPOS>ATOM
      1 C1          1.1814    1.5902    2.8376 C.ar      1 <0>        -0.1150
      2 C2          0.3951    1.6809    1.7039 C.ar      1 <0>        -0.1152
      3 C3          0.3626    0.6318    0.8085 C.ar      1 <0>        -0.1112
      4 C4          1.1102   -0.5151    1.0392 C.ar      1 <0>        -0.0965
      5 C5          1.8861   -0.6108    2.1724 C.ar      1 <0>        -0.0731
      6 C6          1.9230    0.4506    3.0687 C.ar      1 <0>        -0.1139
      7 C7          2.6993   -1.8341    2.5048 C.3       1 <0>        -0.0921
      8 C8          2.9470   -2.6787    1.2560 C.3       1 <0>         0.1278
      9 H1          3.6656   -2.1768    0.6081 H         1 <0>         0.1176
     10 N1          1.6636   -2.8326    0.5511 N.am      1 <0>        -0.5944
     11 C9          1.0406   -1.6184    0.0134 C.3       1 <0>         0.1431
     12 C10         1.0845   -4.0409    0.4057 C.2       1 <0>         0.6014
     13 O1          1.5292   -5.0037    1.0000 O.2       1 <0>        -0.4997
     14 C11        -0.0903   -4.1952   -0.4756 C.2       1 <0>         0.0132
     15 C12        -0.8765   -5.3617   -0.6320 C.2       1 <0>        -0.1569
     16 C13        -1.8332   -5.0366   -1.5326 C.2       1 <0>        -0.0061
     17 N2         -1.6228   -3.7430   -1.8904 N.pl3     1 <0>        -0.2465
     18 N3         -0.6076   -3.2706   -1.2604 N.2       1 <0>        -0.2588
     19 C14        -2.4022   -3.0270   -2.8086 C.ar      1 <0>         0.1939
     20 C15        -3.4872   -3.6366   -3.4246 C.ar      1 <0>        -0.1289
     21 C16        -4.2536   -2.9281   -4.3292 C.ar      1 <0>        -0.0256
     22 C17        -3.9414   -1.6131   -4.6216 C.ar      1 <0>        -0.0541
     23 C18        -2.8613   -1.0034   -4.0102 C.ar      1 <0>        -0.0282
     24 C19        -2.0948   -1.7046   -3.1001 C.ar      1 <0>        -0.1131
     25 N4         -4.7649   -0.8567   -5.5916 N.pl3     1 <0>         0.0316
     26 O2         -5.7092   -1.3887   -6.1272 O.2       1 <0>        -0.1506
     27 O3         -4.4931    0.2930   -5.8482 O.3       1 <0>        -0.1497
     28 C20         3.4772   -4.0323    1.6530 C.2       1 <0>         0.5418
     29 O4          4.4637   -4.4807    1.1084 O.2       1 <0>        -0.5438
     30 N5          2.8552   -4.7445    2.6134 N.am      1 <0>        -0.8168
     31 H2          1.2183    2.4115    3.5380 H         1 <0>         0.1254
     32 H3         -0.1913    2.5690    1.5203 H         1 <0>         0.1260
     33 H4         -0.2495    0.7032   -0.0784 H         1 <0>         0.1240
     34 H5          2.5380    0.3826    3.9539 H         1 <0>         0.1248
     35 H6          3.6567   -1.5249    2.9242 H         1 <0>         0.0979
     36 H7          2.1625   -2.4320    3.2413 H         1 <0>         0.0865
     37 H8         -0.0022   -1.8228   -0.2292 H         1 <0>         0.1238
     38 H9          1.5683   -1.3088   -0.8887 H         1 <0>         0.0866
     39 H10        -0.7412   -6.3119   -0.1368 H         1 <0>         0.1759
     40 H11        -2.6164   -5.6841   -1.8984 H         1 <0>         0.1936
     41 H12        -3.7313   -4.6637   -3.1968 H         1 <0>         0.1593
     42 H13        -5.0974   -3.4018   -4.8088 H         1 <0>         0.1679
     43 H14        -2.6198    0.0236   -4.2409 H         1 <0>         0.1671
     44 H15        -1.2544   -1.2263   -2.6190 H         1 <0>         0.1634
     45 H16         2.0663   -4.3858    3.0490 H         1 <0>         0.3963
     46 H17         3.1966   -5.6157    2.8690 H         1 <0>         0.4017
@<TRIPOS>BOND
     1    1    6 ar
     2    1    2 ar
     3    1   31 1
     4    2    3 ar
     5    2   32 1
     6    3    4 ar
     7    3   33 1
     8    4   11 1
     9    4    5 ar
    10    5    6 ar
    11    5    7 1
    12    6   34 1
    13    7    8 1
    14    7   35 1
    15    7   36 1
    16    8    9 1
    17    8   10 1
    18    8   28 1
    19   10   11 1
    20   10   12 am
    21   11   37 1
    22   11   38 1
    23   12   13 2
    24   12   14 1
    25   14   18 2
    26   14   15 1
    27   15   16 2
    28   15   39 1
    29   16   17 1
    30   16   40 1
    31   17   18 1
    32   17   19 1
    33   19   24 ar
    34   19   20 ar
    35   20   21 ar
    36   20   41 1
    37   21   22 ar
    38   21   42 1
    39   22   23 ar
    40   22   25 1
    41   23   24 ar
    42   23   43 1
    43   24   44 1
    44   25   26 2
    45   25   27 1
    46   28   29 2
    47   28   30 am
    48   30   45 1
    49   30   46 1
