@<TRIPOS>MOLECULE
ZINC43306603
   42    43     0     0     0
SMALL
USER_CHARGES

@<TRIPOS>ATOM
      1 C1         -0.1875    2.4213    0.1471 C.3       1 <0>        -0.1469
      2 C2         -0.2906    0.9158    0.4000 C.3       1 <0>        -0.0629
      3 H1          0.2017    0.3769   -0.4095 H         1 <0>         0.0869
      4 C3         -1.7642    0.5088    0.4615 C.3       1 <0>         0.1430
      5 N1         -2.3857    0.7254   -0.8473 N.am      1 <0>        -0.7417
      6 C4         -3.6889    0.4346   -1.0308 C.2       1 <0>         0.7151
      7 O1         -4.3487   -0.0075   -0.1102 O.2       1 <0>        -0.5629
      8 N2         -4.2607    0.6339   -2.2349 N.am      1 <0>        -0.5267
      9 N3         -3.5005    1.1433   -3.2957 N.am      1 <0>        -0.5185
     10 C5         -4.0723    1.3426   -4.4998 C.2       1 <0>         0.5974
     11 O2         -5.2191    0.9854   -4.6954 O.2       1 <0>        -0.5329
     12 C6         -3.3125    1.9901   -5.5744 C.2       1 <0>        -0.0409
     13 C7         -1.9876    2.3686   -5.5217 C.2       1 <0>        -0.1078
     14 C8         -1.6749    2.9434   -6.7579 C.2       1 <0>        -0.1772
     15 C9         -2.7898    2.9067   -7.5272 C.2       1 <0>         0.0668
     16 N4         -3.7905    2.3249   -6.8209 N.pl3     1 <0>        -0.3971
     17 C10        -5.1543    2.0937   -7.3034 C.3       1 <0>         0.0623
     18 Br1         0.0052    3.6477   -7.2652 Br        1 <0>        -0.0195
     19 C11         0.3786    0.5791    1.7075 C.ar      1 <0>        -0.0796
     20 C12        -0.0795    1.1427    2.8837 C.ar      1 <0>        -0.1119
     21 C13         0.5343    0.8338    4.0832 C.ar      1 <0>        -0.1171
     22 C14         1.6061   -0.0390    4.1065 C.ar      1 <0>        -0.1198
     23 C15         2.0636   -0.6033    2.9304 C.ar      1 <0>        -0.1181
     24 C16         1.4470   -0.2977    1.7315 C.ar      1 <0>        -0.1127
     25 H2          0.8623    2.7113    0.1032 H         1 <0>         0.0641
     26 H3         -0.6716    2.6648   -0.7987 H         1 <0>         0.0566
     27 H4         -0.6799    2.9602    0.9566 H         1 <0>         0.0625
     28 H5         -1.8391   -0.5452    0.7293 H         1 <0>         0.0743
     29 H6         -2.2766    1.1115    1.2113 H         1 <0>         0.0749
     30 H7         -1.8594    1.0781   -1.5818 H         1 <0>         0.3910
     31 H8         -5.1986    0.4246   -2.3670 H         1 <0>         0.4452
     32 H9         -2.5626    1.3526   -3.1636 H         1 <0>         0.4218
     33 H10        -1.3177    2.2449   -4.6836 H         1 <0>         0.1537
     34 H11        -2.8676    3.2769   -8.5388 H         1 <0>         0.1841
     35 H12        -5.7978    2.9118   -6.9798 H         1 <0>         0.0844
     36 H13        -5.1508    2.0430   -8.3922 H         1 <0>         0.0920
     37 H14        -5.5291    1.1542   -6.8972 H         1 <0>         0.1055
     38 H15        -0.9168    1.8246    2.8655 H         1 <0>         0.1224
     39 H16         0.1769    1.2747    5.0020 H         1 <0>         0.1231
     40 H17         2.0861   -0.2798    5.0435 H         1 <0>         0.1221
     41 H18         2.9011   -1.2849    2.9486 H         1 <0>         0.1229
     42 H19         1.8021   -0.7415    0.8131 H         1 <0>         0.1221
@<TRIPOS>BOND
     1    1    2 1
     2    1   25 1
     3    1   26 1
     4    1   27 1
     5    2    3 1
     6    2    4 1
     7    2   19 1
     8    4    5 1
     9    4   28 1
    10    4   29 1
    11    5    6 am
    12    5   30 1
    13    6    7 2
    14    6    8 am
    15    8    9 1
    16    8   31 1
    17    9   10 am
    18    9   32 1
    19   10   11 2
    20   10   12 1
    21   12   16 1
    22   12   13 2
    23   13   14 1
    24   13   33 1
    25   14   15 2
    26   14   18 1
    27   15   16 1
    28   15   34 1
    29   16   17 1
    30   17   35 1
    31   17   36 1
    32   17   37 1
    33   19   24 ar
    34   19   20 ar
    35   20   21 ar
    36   20   38 1
    37   21   22 ar
    38   21   39 1
    39   22   23 ar
    40   22   40 1
    41   23   24 ar
    42   23   41 1
    43   24   42 1
