@<TRIPOS>MOLECULE
ZINC37743495
   49    51     0     0     0
SMALL
USER_CHARGES

@<TRIPOS>ATOM
      1 C1         -0.4120    1.7020   -0.3338 C.3       1 <0>        -0.1578
      2 C2         -0.2861    0.1784   -0.2723 C.3       1 <0>        -0.1282
      3 C3         -1.6808   -0.4458   -0.1943 C.3       1 <0>        -0.1146
      4 C4         -1.5550   -1.9694   -0.1327 C.3       1 <0>        -0.1188
      5 H1         -0.9687   -2.3201   -0.9820 H         1 <0>         0.0993
      6 C5         -0.8582   -2.3714    1.1688 C.3       1 <0>        -0.1382
      7 C6         -0.7323   -3.8949    1.2303 C.3       1 <0>        -0.1695
      8 C7         -2.1261   -4.5242    1.1826 C.3       1 <0>         0.0177
      9 H2         -2.0365   -5.6096    1.2265 H         1 <0>         0.1518
     10 C8         -2.8229   -4.1222   -0.1189 C.3       1 <0>         0.1346
     11 H3         -3.8159   -4.5704   -0.1528 H         1 <0>         0.1210
     12 C9         -2.9488   -2.5986   -0.1804 C.3       1 <0>        -0.1431
     13 N1         -2.0350   -4.5936   -1.2604 N.pl3     1 <0>        -0.4919
     14 C10        -0.7508   -4.2508   -1.5503 C.2       1 <0>         0.2274
     15 N2         -0.3611   -4.8533   -2.6356 N.2       1 <0>        -0.4679
     16 C11        -1.3697   -5.6248   -3.1167 C.ar      1 <0>         0.0445
     17 C12        -2.4560   -5.4727   -2.2381 C.ar      1 <0>         0.0516
     18 C13        -3.6398   -6.1561   -2.4788 C.ar      1 <0>        -0.1219
     19 C14        -3.7400   -6.9823   -3.5783 C.ar      1 <0>        -0.0474
     20 C15        -2.6663   -7.1346   -4.4435 C.ar      1 <0>        -0.0846
     21 C16        -1.4955   -6.4645   -4.2261 C.ar      1 <0>        -0.0541
     22 C17        -2.7951   -8.0424   -5.6395 C.3       1 <0>        -0.1216
     23 C18        -5.0245   -7.7252   -3.8415 C.3       1 <0>        -0.1223
     24 N3         -2.9162   -4.0515    2.3273 N.4       1 <0>        -0.6319
     25 H4          0.5816    2.1467   -0.3894 H         1 <0>         0.0598
     26 H5         -0.9861    1.9838   -1.2165 H         1 <0>         0.0566
     27 H6         -0.9212    2.0609    0.5606 H         1 <0>         0.0546
     28 H7          0.2230   -0.1805   -1.1667 H         1 <0>         0.0658
     29 H8          0.2879   -0.1033    0.6104 H         1 <0>         0.0639
     30 H9         -2.1900   -0.0868    0.7002 H         1 <0>         0.0660
     31 H10        -2.2549   -0.1640   -1.0769 H         1 <0>         0.0717
     32 H11         0.1348   -1.9231    1.2027 H         1 <0>         0.1045
     33 H12        -1.4444   -2.0206    2.0181 H         1 <0>         0.0667
     34 H13        -0.1461   -4.2457    0.3810 H         1 <0>         0.1235
     35 H14        -0.2359   -4.1813    2.1575 H         1 <0>         0.1039
     36 H15        -3.5350   -2.2478    0.6689 H         1 <0>         0.0816
     37 H16        -3.4452   -2.3122   -1.1076 H         1 <0>         0.1025
     38 H17        -0.1433   -3.5763   -0.9650 H         1 <0>         0.2264
     39 H18        -4.4784   -6.0416   -1.8079 H         1 <0>         0.1205
     40 H19        -0.6654   -6.5913   -4.9054 H         1 <0>         0.1358
     41 H20        -3.1675   -7.4719   -6.4903 H         1 <0>         0.0766
     42 H21        -1.8195   -8.4631   -5.8831 H         1 <0>         0.0715
     43 H22        -3.4915   -8.8489   -5.4101 H         1 <0>         0.0754
     44 H23        -5.6756   -7.1147   -4.4672 H         1 <0>         0.0784
     45 H24        -4.8040   -8.6624   -4.3525 H         1 <0>         0.0796
     46 H25        -5.5229   -7.9358   -2.8953 H         1 <0>         0.0672
     47 H26        -2.9992   -3.0467    2.2867 H         1 <0>         0.4325
     48 H27        -3.8354   -4.4664    2.2958 H         1 <0>         0.4379
     49 H28        -2.4567   -4.3166    3.1856 H         1 <0>         0.4427
@<TRIPOS>BOND
     1    1    2 1
     2    1   25 1
     3    1   26 1
     4    1   27 1
     5    2    3 1
     6    2   28 1
     7    2   29 1
     8    3    4 1
     9    3   30 1
    10    3   31 1
    11    4    5 1
    12    4   12 1
    13    4    6 1
    14    6    7 1
    15    6   32 1
    16    6   33 1
    17    7    8 1
    18    7   34 1
    19    7   35 1
    20    8    9 1
    21    8   10 1
    22    8   24 1
    23   10   11 1
    24   10   12 1
    25   10   13 1
    26   12   36 1
    27   12   37 1
    28   13   17 1
    29   13   14 1
    30   14   15 2
    31   14   38 1
    32   15   16 1
    33   16   21 ar
    34   16   17 ar
    35   17   18 ar
    36   18   19 ar
    37   18   39 1
    38   19   20 ar
    39   19   23 1
    40   20   21 ar
    41   20   22 1
    42   21   40 1
    43   22   41 1
    44   22   42 1
    45   22   43 1
    46   23   44 1
    47   23   45 1
    48   23   46 1
    49   24   47 1
    50   24   48 1
    51   24   49 1
