@<TRIPOS>MOLECULE
ZINC39669003
   60    63     0     0     0
SMALL
USER_CHARGES

@<TRIPOS>ATOM
      1 C1         -0.3877    1.3647   -0.2995 C.3       1 <0>        -0.1400
      2 C2         -0.2613   -0.1582   -0.2250 C.3       1 <0>        -0.1405
      3 C3          0.4853   -0.5397    1.0272 C.2       1 <0>         0.5447
      4 O1          0.8776    0.3217    1.7855 O.2       1 <0>        -0.5331
      5 N1          0.7170   -1.8381    1.3045 N.am      1 <0>        -0.6213
      6 C4          0.3252   -3.0219    0.5037 C.3       1 <0>         0.1157
      7 C5          1.5319   -3.9812    0.6089 C.3       1 <0>        -0.1147
      8 H1          1.1909   -5.0145    0.6723 H         1 <0>         0.1172
      9 C6          2.2460   -3.5724    1.9082 C.3       1 <0>        -0.0716
     10 C7          1.4270   -2.4044    2.4763 C.3       1 <0>         0.1056
     11 C8          3.6694   -3.1132    1.6069 C.3       1 <0>        -0.1470
     12 C9          4.3775   -2.7664    2.9196 C.3       1 <0>        -0.0085
     13 N2          4.3969   -3.9457    3.7935 N.4       1 <0>        -0.5044
     14 C10         3.0254   -4.3250    4.1536 C.3       1 <0>        -0.0096
     15 C11         2.2600   -4.7374    2.8930 C.3       1 <0>        -0.1338
     16 C12         2.4481   -3.8036   -0.5743 C.2       1 <0>         0.5161
     17 O2          2.5338   -2.7230   -1.1181 O.2       1 <0>        -0.5196
     18 N3          3.1722   -4.8458   -1.0283 N.am      1 <0>        -0.7226
     19 C13         4.0628   -4.6732   -2.1786 C.3       1 <0>         0.1303
     20 C14         4.7614   -5.9992   -2.4861 C.3       1 <0>         0.1260
     21 H2          4.0124   -6.7571   -2.7155 H         1 <0>         0.0793
     22 C15         5.6705   -5.8204   -3.6741 C.ar      1 <0>        -0.1248
     23 C16         5.2044   -5.1077   -4.7681 C.ar      1 <0>        -0.1094
     24 C17         6.0081   -4.9278   -5.8761 C.ar      1 <0>        -0.1170
     25 C18         7.2836   -5.4610   -5.8960 C.ar      1 <0>        -0.1064
     26 C19         7.7498   -6.1694   -4.8064 C.ar      1 <0>        -0.1169
     27 C20         6.9445   -6.3481   -3.6927 C.ar      1 <0>        -0.0693
     28 C21         7.4923   -7.1164   -2.5171 C.3       1 <0>        -0.1178
     29 C22         6.3453   -7.5500   -1.6026 C.3       1 <0>         0.0618
     30 O3          5.5169   -6.4107   -1.3473 O.3       1 <0>        -0.3771
     31 H3          0.6064    1.8113   -0.3188 H         1 <0>         0.0621
     32 H4         -0.9277    1.6407   -1.2052 H         1 <0>         0.0667
     33 H5         -0.9319    1.7272    0.5726 H         1 <0>         0.0624
     34 H6         -1.2554   -0.6048   -0.2056 H         1 <0>         0.0939
     35 H7          0.2829   -0.5207   -1.0971 H         1 <0>         0.0995
     36 H8         -0.5672   -3.4862    0.9234 H         1 <0>         0.0901
     37 H9          0.1545   -2.7385   -0.5349 H         1 <0>         0.0977
     38 H10         2.0868   -1.6579    2.9187 H         1 <0>         0.0867
     39 H11         0.7126   -2.7675    3.2151 H         1 <0>         0.0828
     40 H12         4.2106   -3.9133    1.1018 H         1 <0>         0.0979
     41 H13         3.6395   -2.2322    0.9657 H         1 <0>         0.1223
     42 H14         5.4002   -2.4537    2.7089 H         1 <0>         0.1378
     43 H15         3.8449   -1.9553    3.4161 H         1 <0>         0.1336
     44 H16         4.8409   -4.7128    3.3112 H         1 <0>         0.4282
     45 H17         3.0515   -5.1611    4.8524 H         1 <0>         0.1397
     46 H18         2.5250   -3.4769    4.6210 H         1 <0>         0.1324
     47 H19         1.2364   -5.0015    3.1589 H         1 <0>         0.1213
     48 H20         2.7504   -5.5959    2.4341 H         1 <0>         0.0982
     49 H21         3.1036   -5.7101   -0.5934 H         1 <0>         0.4041
     50 H22         3.4806   -4.3598   -3.0451 H         1 <0>         0.0901
     51 H23         4.8100   -3.9136   -1.9488 H         1 <0>         0.0803
     52 H24         4.2079   -4.6916   -4.7537 H         1 <0>         0.1252
     53 H25         5.6410   -4.3717   -6.7260 H         1 <0>         0.1284
     54 H26         7.9139   -5.3240   -6.7622 H         1 <0>         0.1283
     55 H27         8.7459   -6.5864   -4.8223 H         1 <0>         0.1265
     56 H28         8.0229   -7.9983   -2.8760 H         1 <0>         0.0894
     57 H29         8.1810   -6.4823   -1.9588 H         1 <0>         0.0862
     58 H30         5.7601   -8.3281   -2.0929 H         1 <0>         0.0603
     59 H31         6.7487   -7.9282   -0.6633 H         1 <0>         0.1029
     60 H32         4.9167   -3.7330    4.6317 H         1 <0>         0.4336
@<TRIPOS>BOND
     1    1    2 1
     2    1   31 1
     3    1   32 1
     4    1   33 1
     5    2    3 1
     6    2   34 1
     7    2   35 1
     8    3    4 2
     9    3    5 am
    10    5   10 1
    11    5    6 1
    12    6    7 1
    13    6   36 1
    14    6   37 1
    15    7    8 1
    16    7    9 1
    17    7   16 1
    18    9   15 1
    19    9   10 1
    20    9   11 1
    21   10   38 1
    22   10   39 1
    23   11   12 1
    24   11   40 1
    25   11   41 1
    26   12   13 1
    27   12   42 1
    28   12   43 1
    29   13   14 1
    30   13   44 1
    31   13   60 1
    32   14   15 1
    33   14   45 1
    34   14   46 1
    35   15   47 1
    36   15   48 1
    37   16   17 2
    38   16   18 am
    39   18   19 1
    40   18   49 1
    41   19   20 1
    42   19   50 1
    43   19   51 1
    44   20   21 1
    45   20   30 1
    46   20   22 1
    47   22   27 ar
    48   22   23 ar
    49   23   24 ar
    50   23   52 1
    51   24   25 ar
    52   24   53 1
    53   25   26 ar
    54   25   54 1
    55   26   27 ar
    56   26   55 1
    57   27   28 1
    58   28   29 1
    59   28   56 1
    60   28   57 1
    61   29   30 1
    62   29   58 1
    63   29   59 1
