@<TRIPOS>MOLECULE
ZINC43712252
   38    39     0     0     0
SMALL
USER_CHARGES

@<TRIPOS>ATOM
      1 C1          1.6955    1.0567   -0.6764 C.3       1 <0>         0.0243
      2 O1          1.1534   -0.2480   -0.4620 O.3       1 <0>        -0.2977
      3 C2          1.2168   -0.7427    0.8032 C.ar      1 <0>         0.1305
      4 C3          1.7837    0.0157    1.8159 C.ar      1 <0>        -0.1740
      5 C4          1.8476   -0.4892    3.1059 C.ar      1 <0>         0.1499
      6 C5          1.3418   -1.7576    3.3809 C.ar      1 <0>         0.0825
      7 C6          0.7764   -2.5115    2.3661 C.ar      1 <0>        -0.1396
      8 C7          0.7089   -2.0039    1.0809 C.ar      1 <0>        -0.0403
      9 Cl1        -0.0064   -2.9487   -0.1877 Cl        1 <0>        -0.0356
     10 O2          1.4035   -2.2555    4.6455 O.3       1 <0>        -0.3216
     11 C8          0.8656   -3.5627    4.8550 C.3       1 <0>         0.0243
     12 N1          2.4206    0.2755    4.1312 N.am      1 <0>        -0.6492
     13 C9          2.4524    1.6192    4.0326 C.2       1 <0>         0.5163
     14 O3          1.8975    2.1726    3.1068 O.2       1 <0>        -0.4683
     15 C10         3.1775    2.4342    5.0724 C.3       1 <0>         0.0548
     16 H1          4.2073    2.0865    5.1543 H         1 <0>         0.1189
     17 C11         2.4763    2.2785    6.4241 C.3       1 <0>        -0.0399
     18 N2          3.1506    3.1195    7.4227 N.4       1 <0>        -0.5026
     19 C12         3.0918    4.5250    6.9980 C.3       1 <0>        -0.0477
     20 C13         3.7918    4.6764    5.6452 C.3       1 <0>         0.0339
     21 O4          3.1677    3.8127    4.6910 O.3       1 <0>        -0.3270
     22 H2          2.7534    1.0583   -0.4140 H         1 <0>         0.0562
     23 H3          1.5809    1.3299   -1.7254 H         1 <0>         0.1085
     24 H4          1.1656    1.7772   -0.0534 H         1 <0>         0.0619
     25 H5          2.1756    0.9987    1.6002 H         1 <0>         0.1679
     26 H6          0.3841   -3.4950    2.5790 H         1 <0>         0.1548
     27 H7          0.9783   -3.8383    5.9036 H         1 <0>         0.1064
     28 H8         -0.1916   -3.5674    4.5897 H         1 <0>         0.0617
     29 H9          1.3998   -4.2797    4.2315 H         1 <0>         0.0624
     30 H10         2.7943   -0.1625    4.9119 H         1 <0>         0.4170
     31 H11         1.4353    2.5879    6.3315 H         1 <0>         0.1513
     32 H12         2.5195    1.2357    6.7382 H         1 <0>         0.1520
     33 H13         2.6896    3.0180    8.3145 H         1 <0>         0.4414
     34 H14         2.0505    4.8335    6.9052 H         1 <0>         0.1449
     35 H15         3.5918    5.1497    7.7381 H         1 <0>         0.1522
     36 H16         3.7119    5.7098    5.3077 H         1 <0>         0.1510
     37 H17         4.8429    4.4062    5.7470 H         1 <0>         0.0874
     38 H18         4.1145    2.8337    7.5076 H         1 <0>         0.4310
@<TRIPOS>BOND
     1    1    2 1
     2    1   22 1
     3    1   23 1
     4    1   24 1
     5    2    3 1
     6    3    8 ar
     7    3    4 ar
     8    4    5 ar
     9    4   25 1
    10    5    6 ar
    11    5   12 1
    12    6    7 ar
    13    6   10 1
    14    7    8 ar
    15    7   26 1
    16    8    9 1
    17   10   11 1
    18   11   27 1
    19   11   28 1
    20   11   29 1
    21   12   13 am
    22   12   30 1
    23   13   14 2
    24   13   15 1
    25   15   16 1
    26   15   21 1
    27   15   17 1
    28   17   18 1
    29   17   31 1
    30   17   32 1
    31   18   19 1
    32   18   33 1
    33   18   38 1
    34   19   20 1
    35   19   34 1
    36   19   35 1
    37   20   21 1
    38   20   36 1
    39   20   37 1
