@<TRIPOS>MOLECULE
ZINC04863533
   42    44     0     0     0
SMALL
USER_CHARGES
(2,4,6-trichlorophenyl)carbamoylmethyl 2-norbornan-2-ylacetate
@<TRIPOS>ATOM
      1 C1          8.0417    8.1943    0.2423 C.ar      1 <0>        -0.0901
      2 C2          8.3895    9.5151    0.0207 C.ar      1 <0>        -0.0103
      3 C3          7.4214   10.5033    0.0533 C.ar      1 <0>        -0.0905
      4 C4          6.1033   10.1733    0.3074 C.ar      1 <0>        -0.0163
      5 C5          5.7510    8.8480    0.5302 C.ar      1 <0>         0.1591
      6 C6          6.7262    7.8589    0.5025 C.ar      1 <0>        -0.0041
      7 Cl1         6.2920    6.2025    0.7880 Cl        1 <0>        -0.0266
      8 N1          4.4161    8.5105    0.7879 N.am      1 <0>        -0.6806
      9 C7          3.7016    7.8356   -0.1343 C.2       1 <0>         0.5226
     10 O1          4.2298    7.4720   -1.1638 O.2       1 <0>        -0.4850
     11 C8          2.2464    7.5327    0.1138 C.3       1 <0>         0.0525
     12 O2          1.7041    6.8027   -1.0182 O.3       1 <0>        -0.3338
     13 C9          0.4095    6.4539   -0.9549 C.2       1 <0>         0.4628
     14 O3         -0.2489    6.7488    0.0144 O.2       1 <0>        -0.5004
     15 C10        -0.2228    5.6945   -2.0926 C.3       1 <0>        -0.1101
     16 C11        -1.6939    5.4244   -1.7703 C.3       1 <0>        -0.0777
     17 H1         -1.7864    4.9401   -0.7982 H         1 <0>         0.0837
     18 C12        -2.5075    6.7639   -1.7989 C.3       1 <0>        -0.1080
     19 C13        -3.5636    6.5325   -2.9225 C.3       1 <0>        -0.1085
     20 H2         -4.4364    7.1850   -2.8978 H         1 <0>         0.0964
     21 C14        -2.7372    6.5494   -4.2446 C.3       1 <0>        -0.1231
     22 C15        -1.9291    5.2320   -4.2172 C.3       1 <0>        -0.1325
     23 C16        -2.3406    4.5416   -2.8810 C.3       1 <0>        -0.0986
     24 H3         -2.1535    3.4695   -2.8213 H         1 <0>         0.1019
     25 C17        -3.8426    4.9951   -2.7745 C.3       1 <0>        -0.1229
     26 Cl2         4.8895   11.4137    0.3486 Cl        1 <0>        -0.0306
     27 Cl3        10.0439    9.9335   -0.2982 Cl        1 <0>        -0.0346
     28 H4          8.7995    7.4252    0.2162 H         1 <0>         0.1575
     29 H5          7.6958   11.5333   -0.1204 H         1 <0>         0.1579
     30 H6          4.0061    8.7625    1.6300 H         1 <0>         0.4184
     31 H7          1.6975    8.4658    0.2409 H         1 <0>         0.1072
     32 H8          2.1496    6.9284    1.0158 H         1 <0>         0.1068
     33 H9          0.2985    4.7474   -2.2315 H         1 <0>         0.1092
     34 H10        -0.1536    6.2848   -3.0064 H         1 <0>         0.1143
     35 H11        -1.8668    7.6097   -2.0481 H         1 <0>         0.0619
     36 H12        -3.0014    6.9293   -0.8414 H         1 <0>         0.0682
     37 H13        -2.0649    7.4073   -4.2615 H         1 <0>         0.0627
     38 H14        -3.4020    6.5696   -5.1081 H         1 <0>         0.0634
     39 H15        -2.1966    4.6043   -5.0673 H         1 <0>         0.0651
     40 H16        -0.8595    5.4420   -4.2227 H         1 <0>         0.0713
     41 H17        -4.2756    4.7497   -1.8048 H         1 <0>         0.0700
     42 H18        -4.4468    4.6084   -3.5952 H         1 <0>         0.0713
@<TRIPOS>BOND
     1    1    6 ar
     2    1    2 ar
     3    1   28 1
     4    2    3 ar
     5    2   27 1
     6    3    4 ar
     7    3   29 1
     8    4    5 ar
     9    4   26 1
    10    5    6 ar
    11    5    8 1
    12    6    7 1
    13    8    9 am
    14    8   30 1
    15    9   10 2
    16    9   11 1
    17   11   12 1
    18   11   31 1
    19   11   32 1
    20   12   13 1
    21   13   14 2
    22   13   15 1
    23   15   16 1
    24   15   33 1
    25   15   34 1
    26   16   17 1
    27   16   23 1
    28   16   18 1
    29   18   19 1
    30   18   35 1
    31   18   36 1
    32   19   20 1
    33   19   25 1
    34   19   21 1
    35   21   22 1
    36   21   37 1
    37   21   38 1
    38   22   23 1
    39   22   39 1
    40   22   40 1
    41   23   24 1
    42   23   25 1
    43   25   41 1
    44   25   42 1
