@<TRIPOS>MOLECULE
ZINC63669077
   64    69     0     0     0
SMALL
USER_CHARGES

@<TRIPOS>ATOM
      1 C1         -0.3458    1.3159   -0.2938 C.3       1 <0>        -0.1256
      2 C2         -0.1147   -0.1705   -0.2022 C.ar      1 <0>        -0.0928
      3 C3          0.1233   -0.9050   -1.3491 C.ar      1 <0>        -0.0453
      4 C4          0.3352   -2.2682   -1.2651 C.ar      1 <0>        -0.1287
      5 C5          0.3097   -2.8972   -0.0342 C.ar      1 <0>        -0.0046
      6 C6          0.0727   -2.1628    1.1124 C.ar      1 <0>        -0.6441
      7 C7         -0.1351   -0.7985    1.0288 C.ar      1 <0>        -0.0078
      8 S1          0.0396   -2.9646    2.6811 S.o2      1 <0>         2.5129
      9 O1          1.2053   -3.7771    2.6976 O.2       1 <0>        -0.8949
     10 O2         -0.1237   -1.9128    3.6225 O.2       1 <0>        -0.8885
     11 C8         -1.4463   -4.0044    2.6419 C.3       1 <0>        -0.5396
     12 H1         -1.3791   -4.7360    1.8367 H         1 <0>         0.1959
     13 C9         -1.6492   -4.7069    3.9938 C.3       1 <0>         0.3227
     14 H2         -0.9686   -4.3175    4.7509 H         1 <0>         0.1626
     15 N1         -1.5376   -6.1585    3.8758 N.pl3     1 <0>        -0.6384
     16 C10        -2.3232   -6.9522    4.5552 C.cat     1 <0>         0.6045
     17 C11        -3.3639   -6.4106    5.4530 C.ar      1 <0>        -0.1921
     18 C12        -3.9591   -7.1712    6.4506 C.ar      1 <0>        -0.0206
     19 C13        -4.9385   -6.6067    7.2444 C.ar      1 <0>        -0.1247
     20 C14        -5.3335   -5.2927    7.0543 C.ar      1 <0>        -0.0072
     21 C15        -4.7444   -4.5196    6.0682 C.ar      1 <0>        -0.1170
     22 C16        -3.7609   -5.0673    5.2768 C.ar      1 <0>         0.2530
     23 N2         -3.0600   -4.3609    4.3001 N.pl3     1 <0>        -0.5015
     24 N3         -3.4604   -3.3925    3.3975 N.2       1 <0>         0.1449
     25 N4         -2.6528   -3.1760    2.4881 N.2       1 <0>        -0.1437
     26 N5         -2.1779   -8.3173    4.4322 N.pl3     1 <0>        -0.6669
     27 C17        -1.1495   -8.8675    3.5456 C.3       1 <0>         0.0742
     28 C18        -1.2005  -10.3959    3.5924 C.3       1 <0>        -0.0954
     29 C19        -0.1426  -10.9619    2.6804 C.2       1 <0>         0.0301
     30 C20         1.1031  -11.3583    3.0276 C.ar      1 <0>        -0.1393
     31 C21         1.8190  -11.3791    4.3088 C.ar      1 <0>        -0.0368
     32 C22         3.0888  -11.8433    4.3432 C.ar      1 <0>        -0.1288
     33 C23         3.7369  -12.3034    3.1887 C.ar      1 <0>         0.0575
     34 C24         3.1447  -12.3153    1.9757 C.ar      1 <0>        -0.2051
     35 C25         1.8095  -11.8500    1.8232 C.ar      1 <0>         0.3308
     36 N6          1.0308  -11.7612    0.7723 N.pl3     1 <0>        -0.5752
     37 C26        -0.2613  -11.2079    1.1929 C.3       1 <0>         0.0630
     38 C27         0.5398   -4.3838    0.0572 C.3       1 <0>        -0.1329
     39 H3          0.6081    1.8374   -0.2159 H         1 <0>         0.0819
     40 H4         -0.8125    1.5528   -1.2499 H         1 <0>         0.0771
     41 H5         -1.0003    1.6325    0.5183 H         1 <0>         0.0764
     42 H6          0.1432   -0.4136   -2.3106 H         1 <0>         0.1414
     43 H7          0.5204   -2.8421   -2.1611 H         1 <0>         0.1389
     44 H8         -0.3165   -0.2240    1.9252 H         1 <0>         0.1501
     45 H9         -3.6582   -8.1968    6.6050 H         1 <0>         0.1482
     46 H10        -5.4017   -7.1964    8.0216 H         1 <0>         0.1590
     47 H11        -6.1060   -4.8688    7.6789 H         1 <0>         0.1634
     48 H12        -5.0544   -3.4955    5.9211 H         1 <0>         0.1650
     49 H13        -2.7565   -8.9137    4.9326 H         1 <0>         0.4461
     50 H14        -1.3303   -8.5290    2.5254 H         1 <0>         0.1023
     51 H15        -0.1673   -8.5266    3.8729 H         1 <0>         0.1087
     52 H16        -1.0197  -10.7345    4.6126 H         1 <0>         0.1273
     53 H17        -2.1827  -10.7369    3.2650 H         1 <0>         0.1291
     54 H18         1.3389  -11.0287    5.2106 H         1 <0>         0.1610
     55 H19         3.6174  -11.8595    5.2849 H         1 <0>         0.1633
     56 H20         4.7519  -12.6628    3.2730 H         1 <0>         0.1676
     57 H21         3.6879  -12.6799    1.1164 H         1 <0>         0.1666
     58 H22        -1.0608  -11.9212    0.9926 H         1 <0>         0.1780
     59 H23        -0.4539  -10.2704    0.6712 H         1 <0>         0.1706
     60 H24         1.6108   -4.5845    0.0875 H         1 <0>         0.1039
     61 H25         0.0723   -4.7687    0.9635 H         1 <0>         0.0348
     62 H26         0.1029   -4.8733   -0.8131 H         1 <0>         0.0895
     63 H27         1.2679  -12.0214   -0.1316 H         1 <0>         0.4608
     64 H28        -0.8699   -6.5395    3.2842 H         1 <0>         0.4343
@<TRIPOS>BOND
     1    1    2 1
     2    1   39 1
     3    1   40 1
     4    1   41 1
     5    2    7 ar
     6    2    3 ar
     7    3    4 ar
     8    3   42 1
     9    4    5 ar
    10    4   43 1
    11    5    6 ar
    12    5   38 1
    13    6    7 ar
    14    6    8 1
    15    7   44 1
    16    8    9 2
    17    8   10 2
    18    8   11 1
    19   11   12 1
    20   11   25 1
    21   11   13 1
    22   13   14 1
    23   13   23 1
    24   13   15 1
    25   15   16 2
    26   15   64 1
    27   16   17 1
    28   16   26 1
    29   17   22 ar
    30   17   18 ar
    31   18   19 ar
    32   18   45 1
    33   19   20 ar
    34   19   46 1
    35   20   21 ar
    36   20   47 1
    37   21   22 ar
    38   21   48 1
    39   22   23 1
    40   23   24 1
    41   24   25 2
    42   26   27 1
    43   26   49 1
    44   27   28 1
    45   27   50 1
    46   27   51 1
    47   28   29 1
    48   28   52 1
    49   28   53 1
    50   29   37 1
    51   29   30 2
    52   30   35 ar
    53   30   31 ar
    54   31   32 ar
    55   31   54 1
    56   32   33 ar
    57   32   55 1
    58   33   34 ar
    59   33   56 1
    60   34   35 ar
    61   34   57 1
    62   35   36 2
    63   36   37 1
    64   36   63 1
    65   37   58 1
    66   37   59 1
    67   38   60 1
    68   38   61 1
    69   38   62 1
