@<TRIPOS>MOLECULE
ZINC39777014
   62    67     0     0     0
SMALL
USER_CHARGES

@<TRIPOS>ATOM
      1 C1          0.8508    0.9139    1.4985 C.ar      1 <0>        -0.1447
      2 C2          2.1143    1.5082    1.4764 C.ar      1 <0>         0.0470
      3 C3          3.2150    0.8334    1.0624 C.ar      1 <0>        -0.2030
      4 C4          3.0973   -0.5147    0.6364 C.ar      1 <0>         0.3155
      5 N1          3.9974   -1.3723    0.1966 N.pl3     1 <0>        -0.5955
      6 C5          3.3417   -2.6468   -0.1118 C.3       1 <0>         0.0767
      7 C6          1.8759   -2.4507    0.2070 C.2       1 <0>         0.1295
      8 C7          1.7633   -1.1364    0.6617 C.ar      1 <0>        -0.1382
      9 C8          0.6630   -0.3723    1.1052 C.ar      1 <0>        -0.0170
     10 C9          0.8451   -3.3933    0.0730 C.2       1 <0>         0.2629
     11 N2         -0.4203   -3.1347    0.2722 N.2       1 <0>        -0.1779
     12 N3         -1.2105   -4.2710    0.0632 N.pl3     1 <0>        -0.5863
     13 C10        -0.2903   -5.3571   -0.3123 C.3       1 <0>         0.3717
     14 H1         -0.5220   -5.7246   -1.3120 H         1 <0>         0.1393
     15 N4          1.0400   -4.7269   -0.2963 N.pl3     1 <0>        -0.6058
     16 C11         2.3186   -5.3723   -0.6045 C.3       1 <0>         0.0743
     17 C12         2.2798   -6.8270   -1.0770 C.3       1 <0>        -0.1576
     18 C13         2.7874   -6.4919    0.3270 C.3       1 <0>        -0.1893
     19 S1         -0.3773   -6.7083    0.8948 S.3       1 <0>        -0.1612
     20 C14         0.0637   -5.9204    2.4681 C.3       1 <0>        -0.1271
     21 C15         0.0295   -6.9468    3.5709 C.2       1 <0>         0.5346
     22 O1         -0.2636   -8.0967    3.3203 O.2       1 <0>        -0.4890
     23 N5          0.3246   -6.5870    4.8358 N.am      1 <0>        -0.6171
     24 C16         0.6755   -5.1961    5.1553 C.3       1 <0>         0.0917
     25 C17        -0.2654   -4.6940    6.2575 C.3       1 <0>         0.0968
     26 N6         -0.2893   -5.6855    7.3421 N.pl3     1 <0>        -0.5945
     27 C18        -0.6401   -7.0764    7.0227 C.3       1 <0>         0.0855
     28 C19         0.2953   -7.5772    5.9214 C.3       1 <0>         0.0976
     29 C20         0.0151   -5.3143    8.6466 C.ar      1 <0>         0.4428
     30 C21         0.2065   -3.9710    8.9545 C.ar      1 <0>        -0.2021
     31 C22         0.5088   -3.6159   10.2565 C.ar      1 <0>         0.0417
     32 C23         0.6099   -4.6198   11.2109 C.ar      1 <0>        -0.1669
     33 C24         0.4074   -5.9324   10.8355 C.ar      1 <0>         0.1520
     34 N7          0.1148   -6.2417    9.5863 N.ar      1 <0>        -0.5050
     35 H2          0.0035    1.4895    1.8407 H         1 <0>         0.1565
     36 H3          2.2175    2.5341    1.7978 H         1 <0>         0.1623
     37 H4          4.1787    1.3210    1.0565 H         1 <0>         0.1623
     38 H5          3.4672   -2.8876   -1.1674 H         1 <0>         0.1743
     39 H6          3.7572   -3.4420    0.5071 H         1 <0>         0.1730
     40 H7         -0.3246   -0.8087    1.1322 H         1 <0>         0.1603
     41 H8         -2.1749   -4.3310    0.1490 H         1 <0>         0.4683
     42 H9          3.0812   -4.7232   -1.0347 H         1 <0>         0.1349
     43 H10         1.3030   -7.3038   -1.1585 H         1 <0>         0.1106
     44 H11         3.0170   -7.1352   -1.8184 H         1 <0>         0.1182
     45 H12         3.8584   -6.5797    0.5092 H         1 <0>         0.1101
     46 H13         2.1445   -6.7483    1.1690 H         1 <0>         0.1075
     47 H14         1.0663   -5.4990    2.3949 H         1 <0>         0.1096
     48 H15        -0.6491   -5.1259    2.6889 H         1 <0>         0.1114
     49 H16         1.7067   -5.1501    5.5055 H         1 <0>         0.0872
     50 H17         0.5607   -4.5763    4.2660 H         1 <0>         0.1048
     51 H18         0.0970   -3.7404    6.6415 H         1 <0>         0.1148
     52 H19        -1.2699   -4.5704    5.8528 H         1 <0>         0.1005
     53 H20        -0.5253   -7.6961    7.9120 H         1 <0>         0.0930
     54 H21        -1.6713   -7.1223    6.6724 H         1 <0>         0.1080
     55 H22        -0.0706   -8.5297    5.5379 H         1 <0>         0.1248
     56 H23         1.2987   -7.7047    6.3274 H         1 <0>         0.0837
     57 H24         0.1207   -3.2160    8.1871 H         1 <0>         0.1772
     58 H25         0.6631   -2.5812   10.5249 H         1 <0>         0.1764
     59 H26         0.8449   -4.3758   12.2364 H         1 <0>         0.1840
     60 H27         0.4854   -6.7162   11.5744 H         1 <0>         0.2096
     61 H28         4.9443   -1.1887    0.0931 H         1 <0>         0.4566
     62 H29        -0.0266   -7.1718    9.3499 H         1 <0>         0.4389
@<TRIPOS>BOND
     1    1    9 ar
     2    1    2 ar
     3    1   35 1
     4    2    3 ar
     5    2   36 1
     6    3    4 ar
     7    3   37 1
     8    4    8 ar
     9    4    5 2
    10    5    6 1
    11    5   61 1
    12    6    7 1
    13    6   38 1
    14    6   39 1
    15    7    8 2
    16    7   10 1
    17    8    9 ar
    18    9   40 1
    19   10   15 1
    20   10   11 2
    21   11   12 1
    22   12   13 1
    23   12   41 1
    24   13   14 1
    25   13   15 1
    26   13   19 1
    27   15   16 1
    28   16   18 1
    29   16   17 1
    30   16   42 1
    31   17   18 1
    32   17   43 1
    33   17   44 1
    34   18   45 1
    35   18   46 1
    36   19   20 1
    37   20   21 1
    38   20   47 1
    39   20   48 1
    40   21   22 2
    41   21   23 am
    42   23   28 1
    43   23   24 1
    44   24   25 1
    45   24   49 1
    46   24   50 1
    47   25   26 1
    48   25   51 1
    49   25   52 1
    50   26   27 1
    51   26   29 1
    52   27   28 1
    53   27   53 1
    54   27   54 1
    55   28   55 1
    56   28   56 1
    57   29   34 ar
    58   29   30 ar
    59   30   31 ar
    60   30   57 1
    61   31   32 ar
    62   31   58 1
    63   32   33 ar
    64   32   59 1
    65   33   34 ar
    66   33   60 1
    67   34   62 1
