@<TRIPOS>MOLECULE
ZINC27989548
   57    60     0     0     0
SMALL
USER_CHARGES
(2S)-3-[[5-(4-piperidylmethyl)thieno[5,4-b]thiophene-2-carbonyl]amino]-2-(3-pyridylsulfonylamino)propanoic acid
@<TRIPOS>ATOM
      1 C1          2.3305    1.4016   -0.0127 C.ar      1 <0>        -0.1909
      2 C2          2.3893    0.0161   -0.0207 C.ar      1 <0>         0.0306
      3 C3          1.1992   -0.6948   -0.0131 C.ar      1 <0>        -0.7174
      4 C4          0.0021   -0.0041    0.0020 C.ar      1 <0>         0.2161
      5 N1         -0.0158    1.3143    0.0093 N.ar      1 <0>        -0.4973
      6 C5          1.0964    2.0231    0.0025 C.ar      1 <0>         0.1504
      7 S1          1.2126   -2.4568   -0.0221 S.o2      1 <0>         2.6998
      8 O1          2.4662   -2.8562    0.5145 O.2       1 <0>        -0.9673
      9 O2         -0.0243   -2.8751    0.5387 O.2       1 <0>        -0.9656
     10 N2          1.2009   -2.9384   -1.6065 N.pl3     1 <0>        -1.0972
     11 C6          2.3400   -2.6297   -2.4744 C.3       1 <0>         0.0940
     12 H1          3.2209   -2.4944   -1.8297 H         1 <0>         0.0977
     13 C7          2.5537   -3.7776   -3.4631 C.3       1 <0>         0.1436
     14 N3          2.7044   -5.0349   -2.7265 N.am      1 <0>        -0.7193
     15 C8          2.9041   -6.1879   -3.3952 C.2       1 <0>         0.5956
     16 O3          2.9593   -6.1846   -4.6112 O.2       1 <0>        -0.5251
     17 C9          3.0547   -7.4447   -2.6589 C.2       1 <0>        -0.2011
     18 C10         3.2554   -8.6992   -3.1469 C.2       1 <0>        -0.0538
     19 C11         3.3821   -9.8057   -2.2700 C.2       1 <0>        -0.1387
     20 C12         3.6026  -11.2501   -2.4701 C.2       1 <0>        -0.0950
     21 C13         3.6740  -12.0695   -1.4182 C.2       1 <0>        -0.1770
     22 S2          3.4497  -10.9733   -0.0296 S.3       1 <0>         0.1744
     23 C14         3.2691   -9.4611   -0.9112 C.2       1 <0>        -0.2454
     24 S3          3.0135   -7.7186   -0.8951 S.3       1 <0>         0.2351
     25 C15         3.8916  -13.5607   -1.4071 C.3       1 <0>        -0.0269
     26 C16         5.3911  -13.8568   -1.3376 C.3       1 <0>        -0.0985
     27 C17         6.0703  -13.3612   -2.6173 C.3       1 <0>        -0.1509
     28 C18         7.5583  -13.7159   -2.5693 C.3       1 <0>        -0.0012
     29 N4          7.7135  -15.1705   -2.4417 N.4       1 <0>        -0.5351
     30 C19         7.1105  -15.6616   -1.1961 C.3       1 <0>        -0.0033
     31 C20         5.6089  -15.3665   -1.2038 C.3       1 <0>        -0.1456
     32 C21         2.0630   -1.3578   -3.2336 C.2       1 <0>         0.4505
     33 O4          1.0208   -0.7695   -3.0669 O.co2     1 <0>        -0.6112
     34 O5          2.9739   -0.8784   -4.0951 O.co2     1 <0>        -0.7507
     35 H2          3.2377    1.9875   -0.0178 H         1 <0>         0.1409
     36 H3          3.3397   -0.4968   -0.0328 H         1 <0>         0.1432
     37 H4         -0.9294   -0.5505    0.0076 H         1 <0>         0.1652
     38 H5          1.0420    3.1017    0.0088 H         1 <0>         0.1596
     39 H6          0.2729   -3.3406   -2.0391 H         1 <0>         0.4413
     40 H7          1.6862   -3.8484   -4.1357 H         1 <0>         0.0793
     41 H8          3.4616   -3.5880   -4.0544 H         1 <0>         0.0956
     42 H9          2.6546   -5.0379   -1.6276 H         1 <0>         0.4182
     43 H10         3.3218   -8.8530   -4.2138 H         1 <0>         0.1450
     44 H11         3.7062  -11.6459   -3.4696 H         1 <0>         0.1327
     45 H12         3.3905  -13.9978   -0.5308 H         1 <0>         0.0923
     46 H13         3.4734  -13.9991   -2.3252 H         1 <0>         0.0927
     47 H14         5.8229  -13.3422   -0.4665 H         1 <0>         0.0936
     48 H15         5.6046  -13.8429   -3.4897 H         1 <0>         0.0898
     49 H16         5.9539  -12.2702   -2.6953 H         1 <0>         0.1150
     50 H17         8.0463  -13.3758   -3.4946 H         1 <0>         0.1322
     51 H18         8.0255  -13.2210   -1.7051 H         1 <0>         0.1269
     52 H19         7.2204  -15.6677   -3.2901 H         1 <0>         0.4485
     53 H20         7.2700  -16.7469   -1.1145 H         1 <0>         0.1319
     54 H21         7.5785  -15.1567   -0.3382 H         1 <0>         0.1264
     55 H22         5.1591  -15.7200   -0.2642 H         1 <0>         0.1124
     56 H23         5.1365  -15.8818   -2.0531 H         1 <0>         0.0905
     57 H24         8.7834  -15.4262   -2.4383 H         1 <0>         0.4532
@<TRIPOS>BOND
     1    1    6 ar
     2    1    2 ar
     3    1   35 1
     4    2    3 ar
     5    2   36 1
     6    3    4 ar
     7    3    7 1
     8    4    5 ar
     9    4   37 1
    10    5    6 ar
    11    6   38 1
    12    7    8 2
    13    7    9 2
    14    7   10 1
    15   10   11 1
    16   10   39 1
    17   11   12 1
    18   11   13 1
    19   11   32 1
    20   13   14 1
    21   13   40 1
    22   13   41 1
    23   14   15 am
    24   14   42 1
    25   15   16 2
    26   15   17 1
    27   17   24 1
    28   17   18 2
    29   18   19 1
    30   18   43 1
    31   19   23 2
    32   19   20 1
    33   20   21 2
    34   20   44 1
    35   21   22 1
    36   21   25 1
    37   22   23 1
    38   23   24 1
    39   25   26 1
    40   25   45 1
    41   25   46 1
    42   26   31 1
    43   26   27 1
    44   26   47 1
    45   27   28 1
    46   27   48 1
    47   27   49 1
    48   28   29 1
    49   28   50 1
    50   28   51 1
    51   29   30 1
    52   29   52 1
    53   29   57 1
    54   30   31 1
    55   30   53 1
    56   30   54 1
    57   31   55 1
    58   31   56 1
    59   32   33 2
    60   32   34 1
