@<TRIPOS>MOLECULE
ZINC47877933
   55    56     0     0     0
SMALL
USER_CHARGES

@<TRIPOS>ATOM
      1 C1          0.4185    0.1880   -1.4627 C.3       1 <0>        -0.1405
      2 C2         -0.0770    0.0425   -0.0225 C.3       1 <0>        -0.1172
      3 C3         -0.0579    1.4098    0.6639 C.3       1 <0>        -0.1371
      4 C4         -1.4840   -0.4974   -0.0275 C.2       1 <0>         0.5200
      5 O1         -2.4246    0.2621   -0.1248 O.2       1 <0>        -0.5358
      6 N1         -1.6970   -1.8241    0.0762 N.am      1 <0>        -0.6160
      7 C5         -0.5747   -2.7481    0.2894 C.3       1 <0>         0.1073
      8 C6         -0.6176   -3.8334   -0.7909 C.3       1 <0>        -0.1430
      9 C7         -1.9936   -4.5032   -0.7812 C.3       1 <0>         0.1644
     10 C8         -3.0711   -3.4635   -1.0981 C.3       1 <0>        -0.1441
     11 C9         -3.0567   -2.3734   -0.0157 C.3       1 <0>         0.1134
     12 N2         -2.0272   -5.5641   -1.7909 N.am      1 <0>        -0.7381
     13 C10        -2.8826   -6.5967   -1.6553 C.2       1 <0>         0.7058
     14 O2         -3.6266   -6.6477   -0.6948 O.2       1 <0>        -0.5723
     15 N3         -2.9135   -7.5727   -2.5842 N.am      1 <0>        -0.6771
     16 C11        -3.7395   -8.6900   -2.3996 C.ar      1 <0>         0.1347
     17 C12        -4.9654   -8.5513   -1.7656 C.ar      1 <0>        -0.0846
     18 C13        -5.7782   -9.6544   -1.5847 C.ar      1 <0>        -0.1360
     19 C14        -5.3726  -10.8974   -2.0344 C.ar      1 <0>        -0.0945
     20 C15        -4.1521  -11.0433   -2.6672 C.ar      1 <0>        -0.1892
     21 C16        -3.3341   -9.9414   -2.8575 C.ar      1 <0>         0.1036
     22 O3         -2.1358  -10.0823   -3.4847 O.3       1 <0>        -0.3205
     23 C17        -1.7857  -11.3951   -3.9275 C.3       1 <0>         0.0754
     24 C18        -0.4142  -11.3561   -4.6045 C.3       1 <0>        -0.1423
     25 C19        -0.0450  -12.7406   -5.0714 C.2       1 <0>         0.5229
     26 O4         -0.8040  -13.6672   -4.8814 O.2       1 <0>        -0.5411
     27 N4          1.1288  -12.9490   -5.7002 N.am      1 <0>        -0.8528
     28 H1          1.4361    0.5785   -1.4591 H         1 <0>         0.0701
     29 H2          0.4048   -0.7861   -1.9518 H         1 <0>         0.0575
     30 H3         -0.2324    0.8751   -2.0033 H         1 <0>         0.0641
     31 H4          0.5739   -0.6446    0.5180 H         1 <0>         0.0926
     32 H5          0.9709    1.7602    0.7470 H         1 <0>         0.0646
     33 H6         -0.6373    2.1204    0.0745 H         1 <0>         0.0672
     34 H7         -0.4935    1.3227    1.6593 H         1 <0>         0.0576
     35 H8          0.3661   -2.2020    0.2216 H         1 <0>         0.0965
     36 H9         -0.6623   -3.2084    1.2735 H         1 <0>         0.0763
     37 H10        -0.4393   -3.3824   -1.7670 H         1 <0>         0.0751
     38 H11         0.1513   -4.5790   -0.5882 H         1 <0>         0.0856
     39 H12        -2.1816   -4.9326    0.2028 H         1 <0>         0.0939
     40 H13        -2.8697   -3.0159   -2.0713 H         1 <0>         0.0686
     41 H14        -4.0484   -3.9458   -1.1140 H         1 <0>         0.0831
     42 H15        -3.3425   -2.8038    0.9441 H         1 <0>         0.0722
     43 H16        -3.7539   -1.5800   -0.2848 H         1 <0>         0.0964
     44 H17        -1.4337   -5.5234   -2.5571 H         1 <0>         0.3973
     45 H18        -2.3641   -7.5020   -3.3804 H         1 <0>         0.4084
     46 H19        -5.2845   -7.5817   -1.4131 H         1 <0>         0.1482
     47 H20        -6.7323   -9.5453   -1.0906 H         1 <0>         0.1282
     48 H21        -6.0108  -11.7568   -1.8906 H         1 <0>         0.1271
     49 H22        -3.8382  -12.0156   -3.0173 H         1 <0>         0.1339
     50 H23        -1.7495  -12.0695   -3.0719 H         1 <0>         0.0729
     51 H24        -2.5319  -11.7498   -4.6384 H         1 <0>         0.0731
     52 H25        -0.4504  -10.6817   -5.4601 H         1 <0>         0.1071
     53 H26         0.3320  -11.0014   -3.8936 H         1 <0>         0.1069
     54 H27         1.7359  -12.2079   -5.8522 H         1 <0>         0.4040
     55 H28         1.3665  -13.8401   -6.0007 H         1 <0>         0.4059
@<TRIPOS>BOND
     1    1    2 1
     2    1   28 1
     3    1   29 1
     4    1   30 1
     5    2    3 1
     6    2    4 1
     7    2   31 1
     8    3   32 1
     9    3   33 1
    10    3   34 1
    11    4    5 2
    12    4    6 am
    13    6   11 1
    14    6    7 1
    15    7    8 1
    16    7   35 1
    17    7   36 1
    18    8    9 1
    19    8   37 1
    20    8   38 1
    21    9   10 1
    22    9   12 1
    23    9   39 1
    24   10   11 1
    25   10   40 1
    26   10   41 1
    27   11   42 1
    28   11   43 1
    29   12   13 am
    30   12   44 1
    31   13   14 2
    32   13   15 am
    33   15   16 1
    34   15   45 1
    35   16   21 ar
    36   16   17 ar
    37   17   18 ar
    38   17   46 1
    39   18   19 ar
    40   18   47 1
    41   19   20 ar
    42   19   48 1
    43   20   21 ar
    44   20   49 1
    45   21   22 1
    46   22   23 1
    47   23   24 1
    48   23   50 1
    49   23   51 1
    50   24   25 1
    51   24   52 1
    52   24   53 1
    53   25   26 2
    54   25   27 am
    55   27   54 1
    56   27   55 1
