@<TRIPOS>MOLECULE
ZINC39695609
   71    74     0     0     0
SMALL
USER_CHARGES

@<TRIPOS>ATOM
      1 C1         -0.4793   -2.9138    0.0117 C.3       1 <0>        -0.1726
      2 C2         -0.0534   -3.0535   -1.4511 C.3       1 <0>         0.1079
      3 N1          0.5334   -1.7926   -1.9115 N.pl3     1 <0>        -0.2577
      4 C3         -0.1692   -0.7361   -2.4204 C.2       1 <0>        -0.0050
      5 C4          0.7660    0.2389   -2.7258 C.2       1 <0>        -0.1537
      6 C5          2.0015   -0.3101   -2.3710 C.2       1 <0>         0.0667
      7 N2          1.7860   -1.5089   -1.8933 N.2       1 <0>        -0.2606
      8 C6          3.3433    0.3619   -2.5091 C.3       1 <0>        -0.0774
      9 Br1         0.4406    1.9484   -3.4657 Br        1 <0>         0.0125
     10 C7         -1.6256   -0.6520   -2.6067 C.2       1 <0>         0.6296
     11 O1         -2.1245   -0.9941   -3.6620 O.2       1 <0>        -0.4954
     12 N3         -2.4075   -0.1958   -1.6082 N.am      1 <0>        -0.6073
     13 C8         -1.9974    0.1904   -0.2376 C.3       1 <0>         0.1114
     14 C9         -2.8427    1.4430    0.0845 C.3       1 <0>        -0.1107
     15 H1         -3.1480    1.4360    1.1309 H         1 <0>         0.1174
     16 C10        -4.0721    1.3332   -0.8328 C.3       1 <0>        -0.0737
     17 C11        -3.8711    0.0393   -1.6352 C.3       1 <0>         0.1065
     18 C12        -5.3472    1.2467    0.0004 C.3       1 <0>        -0.1309
     19 C13        -6.5595    1.1970   -0.9339 C.3       1 <0>        -0.0137
     20 N4         -6.5814    2.3998   -1.7748 N.4       1 <0>        -0.5041
     21 C14        -5.3960    2.4274   -2.6401 C.3       1 <0>        -0.0135
     22 C15        -4.1345    2.5293   -1.7780 C.3       1 <0>        -0.1435
     23 C16        -2.0640    2.6954   -0.2254 C.2       1 <0>         0.5103
     24 O2         -1.2897    2.7127   -1.1587 O.2       1 <0>        -0.4629
     25 N5         -2.2281    3.7963    0.5346 N.am      1 <0>        -0.7572
     26 C17        -1.5569    5.0460    0.1683 C.3       1 <0>         0.0992
     27 C18        -1.9076    6.1312    1.1882 C.3       1 <0>         0.0107
     28 H2         -1.4925    5.8724    2.1623 H         1 <0>         0.1495
     29 C19        -1.3454    7.4907    0.7224 C.3       1 <0>        -0.1339
     30 C20        -2.5667    8.1573    0.0361 C.3       1 <0>        -0.1432
     31 C21        -3.7344    7.6613    0.9250 C.3       1 <0>        -0.0107
     32 N6         -3.3719    6.2712    1.2882 N.4       1 <0>        -0.3938
     33 C22        -3.8029    5.9878    2.6636 C.3       1 <0>        -0.0150
     34 C23        -5.3311    6.0120    2.7345 C.3       1 <0>        -0.1860
     35 H3          0.4022   -2.7573    0.6335 H         1 <0>         0.0751
     36 H4         -1.1521   -2.0624    0.1145 H         1 <0>         0.0563
     37 H5         -0.9914   -3.8220    0.3294 H         1 <0>         0.0910
     38 H6          0.6840   -3.8513   -1.5402 H         1 <0>         0.1185
     39 H7         -0.9238   -3.2935   -2.0617 H         1 <0>         0.1000
     40 H8          3.5687    0.9141   -1.5967 H         1 <0>         0.0807
     41 H9          4.1120   -0.3926   -2.6763 H         1 <0>         0.0837
     42 H10         3.3198    1.0501   -3.3540 H         1 <0>         0.0827
     43 H11        -2.2220   -0.6110    0.4662 H         1 <0>         0.0966
     44 H12        -0.9348    0.4323   -0.2128 H         1 <0>         0.0987
     45 H13        -4.2165    0.1709   -2.6606 H         1 <0>         0.0943
     46 H14        -4.3980   -0.7873   -1.1584 H         1 <0>         0.0925
     47 H15        -5.3218    0.3448    0.6119 H         1 <0>         0.1256
     48 H16        -5.4205    2.1224    0.6453 H         1 <0>         0.0921
     49 H17        -6.4937    0.3123   -1.5672 H         1 <0>         0.1377
     50 H18        -7.4731    1.1517   -0.3411 H         1 <0>         0.1439
     51 H19        -7.4131    2.3942   -2.3460 H         1 <0>         0.4391
     52 H20        -5.3578    1.5134   -3.2329 H         1 <0>         0.1396
     53 H21        -5.4518    3.2891   -3.3052 H         1 <0>         0.1409
     54 H22        -4.1643    3.4510   -1.1970 H         1 <0>         0.0826
     55 H23        -3.2539    2.5317   -2.4204 H         1 <0>         0.1305
     56 H24        -2.7905    3.7613    1.3241 H         1 <0>         0.3924
     57 H25        -0.4781    4.8901    0.1600 H         1 <0>         0.1203
     58 H26        -1.8865    5.3585   -0.8226 H         1 <0>         0.0962
     59 H27        -1.0120    8.0824    1.5750 H         1 <0>         0.1106
     60 H28        -0.5331    7.3482    0.0097 H         1 <0>         0.1203
     61 H29        -2.4869    9.2439    0.0668 H         1 <0>         0.1244
     62 H30        -2.6792    7.8043   -0.9890 H         1 <0>         0.0982
     63 H31        -3.8171    8.2767    1.8209 H         1 <0>         0.1384
     64 H32        -4.6698    7.6761    0.3658 H         1 <0>         0.1338
     65 H33        -3.4408    5.0041    2.9624 H         1 <0>         0.1255
     66 H34        -3.3961    6.7440    3.3350 H         1 <0>         0.1379
     67 H35        -5.6931    6.9957    2.4357 H         1 <0>         0.0843
     68 H36        -5.7379    5.2557    2.0631 H         1 <0>         0.0715
     69 H37        -5.6509    5.8016    3.7550 H         1 <0>         0.1111
     70 H38        -6.5860    3.2197   -1.1867 H         1 <0>         0.4213
     71 H39        -3.8188    5.6263    0.6538 H         1 <0>         0.4122
@<TRIPOS>BOND
     1    1    2 1
     2    1   35 1
     3    1   36 1
     4    1   37 1
     5    2    3 1
     6    2   38 1
     7    2   39 1
     8    3    7 1
     9    3    4 1
    10    4    5 2
    11    4   10 1
    12    5    6 1
    13    5    9 1
    14    6    7 2
    15    6    8 1
    16    8   40 1
    17    8   41 1
    18    8   42 1
    19   10   11 2
    20   10   12 am
    21   12   17 1
    22   12   13 1
    23   13   14 1
    24   13   43 1
    25   13   44 1
    26   14   15 1
    27   14   16 1
    28   14   23 1
    29   16   22 1
    30   16   17 1
    31   16   18 1
    32   17   45 1
    33   17   46 1
    34   18   19 1
    35   18   47 1
    36   18   48 1
    37   19   20 1
    38   19   49 1
    39   19   50 1
    40   20   21 1
    41   20   51 1
    42   20   70 1
    43   21   22 1
    44   21   52 1
    45   21   53 1
    46   22   54 1
    47   22   55 1
    48   23   24 2
    49   23   25 am
    50   25   26 1
    51   25   56 1
    52   26   27 1
    53   26   57 1
    54   26   58 1
    55   27   28 1
    56   27   32 1
    57   27   29 1
    58   29   30 1
    59   29   59 1
    60   29   60 1
    61   30   31 1
    62   30   61 1
    63   30   62 1
    64   31   32 1
    65   31   63 1
    66   31   64 1
    67   32   33 1
    68   32   71 1
    69   33   34 1
    70   33   65 1
    71   33   66 1
    72   34   67 1
    73   34   68 1
    74   34   69 1
