@<TRIPOS>MOLECULE
ZINC02108745
   69    72     0     0     0
SMALL
USER_CHARGES

@<TRIPOS>ATOM
      1 C1         -0.0187    1.5258    0.0104 C.3       1 <0>        -0.1544
      2 C2          0.0021   -0.0041    0.0020 C.3       1 <0>        -0.1243
      3 C3         -1.4333   -0.5336    0.0129 C.3       1 <0>        -0.1172
      4 C4         -1.4126   -2.0635    0.0045 C.3       1 <0>        -0.1191
      5 C5         -2.8479   -2.5931    0.0153 C.3       1 <0>         0.0573
      6 O1         -2.8286   -4.0219    0.0075 O.3       1 <0>        -0.3025
      7 C6         -4.0314   -4.6556    0.0155 C.ar      1 <0>         0.1092
      8 C7         -5.2038   -3.9147    0.0249 C.ar      1 <0>        -0.1723
      9 C8         -6.4267   -4.5531    0.0332 C.ar      1 <0>        -0.1040
     10 C9         -6.4860   -5.9474    0.0316 C.ar      1 <0>        -0.0599
     11 C10        -5.3064   -6.6932    0.0217 C.ar      1 <0>        -0.1585
     12 C11        -4.0837   -6.0474    0.0086 C.ar      1 <0>         0.1043
     13 O2         -2.9325   -6.7711   -0.0058 O.3       1 <0>        -0.3037
     14 C12        -3.0609   -8.1943   -0.0123 C.3       1 <0>         0.0532
     15 C13        -1.6701   -8.8319   -0.0284 C.3       1 <0>        -0.1521
     16 C14        -7.7952   -6.6327    0.0409 C.2       1 <0>        -0.0803
     17 C15        -8.9151   -5.9229    0.0507 C.2       1 <0>        -0.1702
     18 C16       -10.2502   -6.6218    0.0602 C.3       1 <0>         0.4316
     19 C17       -11.0385   -6.2896   -1.2142 C.3       1 <0>        -0.0229
     20 C18       -11.0431   -7.5763   -1.9905 C.ar      1 <0>        -0.1567
     21 C19       -11.5351   -7.8347   -3.2565 C.ar      1 <0>        -0.0502
     22 C20       -11.3926   -9.1291   -3.7407 C.ar      1 <0>        -0.1713
     23 C21       -10.7853  -10.1144   -2.9893 C.ar      1 <0>        -0.0737
     24 C22       -10.2947   -9.8672   -1.7181 C.ar      1 <0>        -0.1760
     25 C23       -10.4362   -8.5692   -1.2149 C.ar      1 <0>         0.2058
     26 N1        -10.0672   -8.0859    0.0215 N.pl3     1 <0>        -0.6279
     27 C24        -9.6231   -8.8351    1.2079 C.3       1 <0>         0.1328
     28 C25       -10.6589   -8.5701    2.3084 C.3       1 <0>        -0.1528
     29 C26       -11.1164   -7.1447    2.2918 C.2       1 <0>         0.5274
     30 O3        -11.6361   -6.7207    3.3023 O.2       1 <0>        -0.5529
     31 N2        -10.9867   -6.2958    1.2760 N.am      1 <0>        -0.7125
     32 C27       -12.4678   -5.8694   -0.8655 C.3       1 <0>        -0.1334
     33 C28       -10.3336   -5.1878   -2.0080 C.3       1 <0>        -0.1344
     34 H1          1.0039    1.9031    0.0027 H         1 <0>         0.0554
     35 H2         -0.5459    1.8868   -0.8726 H         1 <0>         0.0542
     36 H3         -0.5289    1.8773    0.9072 H         1 <0>         0.0541
     37 H4          0.5123   -0.3556   -0.8948 H         1 <0>         0.0634
     38 H5          0.5293   -0.3651    0.8851 H         1 <0>         0.0633
     39 H6         -1.9435   -0.1821    0.9097 H         1 <0>         0.0651
     40 H7         -1.9605   -0.1726   -0.8702 H         1 <0>         0.0652
     41 H8         -0.9024   -2.4150   -0.8923 H         1 <0>         0.0745
     42 H9         -0.8854   -2.4246    0.8875 H         1 <0>         0.0744
     43 H10        -3.3581   -2.2415    0.9121 H         1 <0>         0.0618
     44 H11        -3.3751   -2.2320   -0.8677 H         1 <0>         0.0619
     45 H12        -5.1593   -2.8356    0.0262 H         1 <0>         0.1367
     46 H13        -7.3381   -3.9738    0.0412 H         1 <0>         0.1285
     47 H14        -5.3484   -7.7724    0.0205 H         1 <0>         0.1356
     48 H15        -3.5971   -8.5148    0.8809 H         1 <0>         0.0607
     49 H16        -3.6134   -8.5053   -0.8989 H         1 <0>         0.0612
     50 H17        -1.1339   -8.5114   -0.9217 H         1 <0>         0.0671
     51 H18        -1.1176   -8.5209    0.8582 H         1 <0>         0.0669
     52 H19        -1.7681   -9.9174   -0.0333 H         1 <0>         0.0789
     53 H20        -7.8399   -7.7118    0.0396 H         1 <0>         0.1255
     54 H21        -8.8704   -4.8438    0.0519 H         1 <0>         0.1304
     55 H22       -12.0103   -7.0630   -3.8441 H         1 <0>         0.1279
     56 H23       -11.7652   -9.3692   -4.7255 H         1 <0>         0.1190
     57 H24       -10.6902  -11.1069   -3.4044 H         1 <0>         0.1196
     58 H25        -9.8209  -10.6454   -1.1381 H         1 <0>         0.1247
     59 H26        -9.5826   -9.9008    0.9826 H         1 <0>         0.0982
     60 H27        -8.6421   -8.4824    1.5262 H         1 <0>         0.0817
     61 H28       -11.5182   -9.2227    2.1545 H         1 <0>         0.1055
     62 H29       -10.2135   -8.7909    3.2785 H         1 <0>         0.1119
     63 H30       -11.4225   -5.4315    1.3396 H         1 <0>         0.4070
     64 H31       -12.4413   -4.9875   -0.2255 H         1 <0>         0.0592
     65 H32       -13.0119   -5.6377   -1.7811 H         1 <0>         0.0680
     66 H33       -12.9683   -6.6837   -0.3416 H         1 <0>         0.0599
     67 H34        -9.3347   -5.5232   -2.2868 H         1 <0>         0.0668
     68 H35       -10.9066   -4.9652   -2.9082 H         1 <0>         0.0660
     69 H36       -10.2574   -4.2900   -1.3946 H         1 <0>         0.0615
@<TRIPOS>BOND
     1    1    2 1
     2    1   34 1
     3    1   35 1
     4    1   36 1
     5    2    3 1
     6    2   37 1
     7    2   38 1
     8    3    4 1
     9    3   39 1
    10    3   40 1
    11    4    5 1
    12    4   41 1
    13    4   42 1
    14    5    6 1
    15    5   43 1
    16    5   44 1
    17    6    7 1
    18    7   12 ar
    19    7    8 ar
    20    8    9 ar
    21    8   45 1
    22    9   10 ar
    23    9   46 1
    24   10   11 ar
    25   10   16 1
    26   11   12 ar
    27   11   47 1
    28   12   13 1
    29   13   14 1
    30   14   15 1
    31   14   48 1
    32   14   49 1
    33   15   50 1
    34   15   51 1
    35   15   52 1
    36   16   17 2
    37   16   53 1
    38   17   18 1
    39   17   54 1
    40   18   26 1
    41   18   31 1
    42   18   19 1
    43   19   20 1
    44   19   32 1
    45   19   33 1
    46   20   25 ar
    47   20   21 ar
    48   21   22 ar
    49   21   55 1
    50   22   23 ar
    51   22   56 1
    52   23   24 ar
    53   23   57 1
    54   24   25 ar
    55   24   58 1
    56   25   26 1
    57   26   27 1
    58   27   28 1
    59   27   59 1
    60   27   60 1
    61   28   29 1
    62   28   61 1
    63   28   62 1
    64   29   30 2
    65   29   31 am
    66   31   63 1
    67   32   64 1
    68   32   65 1
    69   32   66 1
    70   33   67 1
    71   33   68 1
    72   33   69 1
