@<TRIPOS>MOLECULE
ZINC01125393
   53    55     0     0     0
SMALL
USER_CHARGES
methyl (4S)-4-(3-bromo-4-hydroxy-5-methoxy-phenyl)-6-methyl-2-oxo-1-phenethyl-3,4-dihydropyrimidine-5-carboxylate
@<TRIPOS>ATOM
      1 C1          1.2544    1.7873   -2.4677 C.3       1 <0>        -0.1344
      2 C2          1.9852    2.1639   -1.2047 C.2       1 <0>         0.2672
      3 C3          3.3085    2.4285   -1.2567 C.2       1 <0>        -0.2907
      4 C4          4.0040    2.8032    0.0363 C.3       1 <0>         0.2420
      5 H1          4.4566    3.7856   -0.0980 H         1 <0>         0.0947
      6 N1          3.1738    2.8482    1.2518 N.am      1 <0>        -0.7121
      7 C5          1.8611    2.5631    1.1428 C.2       1 <0>         0.7048
      8 O1          1.1662    2.6024    2.1394 O.2       1 <0>        -0.5519
      9 N2          1.2985    2.2325   -0.0264 N.am      1 <0>        -0.5375
     10 C6         -0.1355    1.9331   -0.0434 C.3       1 <0>         0.1049
     11 C7         -0.3420    0.4205    0.0584 C.3       1 <0>        -0.0970
     12 C8         -1.8171    0.1126    0.0409 C.ar      1 <0>        -0.0857
     13 C9         -2.5243    0.0505    1.2270 C.ar      1 <0>        -0.1100
     14 C10        -3.8784   -0.2272    1.2105 C.ar      1 <0>        -0.1171
     15 C11        -4.5232   -0.4528    0.0087 C.ar      1 <0>        -0.1192
     16 C12        -3.8147   -0.3963   -1.1769 C.ar      1 <0>        -0.1182
     17 C13        -2.4617   -0.1134   -1.1609 C.ar      1 <0>        -0.1152
     18 C14         5.1159    1.8130    0.2696 C.ar      1 <0>        -0.0722
     19 C15         6.4178    2.1490   -0.0532 C.ar      1 <0>        -0.1415
     20 C16         7.4422    1.2422    0.1657 C.ar      1 <0>         0.1094
     21 C17         7.1563   -0.0105    0.7000 C.ar      1 <0>         0.1081
     22 C18         5.8485   -0.3434    1.0163 C.ar      1 <0>        -0.0863
     23 C19         4.8312    0.5690    0.8003 C.ar      1 <0>        -0.0922
     24 Br1         5.4550   -2.0442    1.7432 Br        1 <0>        -0.0252
     25 O2          8.1579   -0.9059    0.9120 O.3       1 <0>        -0.4731
     26 O3          8.7237    1.5736   -0.1462 O.3       1 <0>        -0.3023
     27 C20         8.9427    2.8764   -0.6909 C.3       1 <0>         0.0234
     28 C21         4.0211    2.3579   -2.4766 C.2       1 <0>         0.5355
     29 O4          3.4419    2.0546   -3.5028 O.2       1 <0>        -0.5148
     30 O5          5.3431    2.6270   -2.5022 O.3       1 <0>        -0.3494
     31 C22         5.9992    2.5364   -3.7685 C.3       1 <0>         0.0353
     32 H2          0.2248    1.5229   -2.2267 H         1 <0>         0.0777
     33 H3          1.2609    2.6319   -3.1568 H         1 <0>         0.1051
     34 H4          1.7490    0.9348   -2.9333 H         1 <0>         0.1105
     35 H5          3.5617    3.0815    2.1097 H         1 <0>         0.4346
     36 H6         -0.5717    2.2975   -0.9735 H         1 <0>         0.0988
     37 H7         -0.6191    2.4235    0.8014 H         1 <0>         0.1112
     38 H8          0.1416   -0.0699   -0.7864 H         1 <0>         0.0794
     39 H9          0.0942    0.0561    0.9885 H         1 <0>         0.0825
     40 H10        -2.0198    0.2226    2.1662 H         1 <0>         0.1240
     41 H11        -4.4318   -0.2717    2.1369 H         1 <0>         0.1234
     42 H12        -5.5803   -0.6734   -0.0038 H         1 <0>         0.1223
     43 H13        -4.3184   -0.5728   -2.1159 H         1 <0>         0.1232
     44 H14        -1.9082   -0.0693   -2.0872 H         1 <0>         0.1222
     45 H15         6.6367    3.1200   -0.4723 H         1 <0>         0.1451
     46 H16         3.8124    0.3086    1.0467 H         1 <0>         0.1297
     47 H17         8.3324   -1.4864    0.1586 H         1 <0>         0.3911
     48 H18         8.3790    2.9821   -1.6178 H         1 <0>         0.0587
     49 H19         8.6111    3.6295    0.0239 H         1 <0>         0.0580
     50 H20        10.0050    3.0113   -0.8943 H         1 <0>         0.1038
     51 H21         7.0556    2.7766   -3.6484 H         1 <0>         0.0976
     52 H22         5.8989    1.5233   -4.1580 H         1 <0>         0.0603
     53 H23         5.5435    3.2402   -4.4650 H         1 <0>         0.0617
@<TRIPOS>BOND
     1    1    2 1
     2    1   32 1
     3    1   33 1
     4    1   34 1
     5    2    9 1
     6    2    3 2
     7    3    4 1
     8    3   28 1
     9    4    5 1
    10    4    6 1
    11    4   18 1
    12    6    7 am
    13    6   35 1
    14    7    8 2
    15    7    9 am
    16    9   10 1
    17   10   11 1
    18   10   36 1
    19   10   37 1
    20   11   12 1
    21   11   38 1
    22   11   39 1
    23   12   17 ar
    24   12   13 ar
    25   13   14 ar
    26   13   40 1
    27   14   15 ar
    28   14   41 1
    29   15   16 ar
    30   15   42 1
    31   16   17 ar
    32   16   43 1
    33   17   44 1
    34   18   23 ar
    35   18   19 ar
    36   19   20 ar
    37   19   45 1
    38   20   21 ar
    39   20   26 1
    40   21   22 ar
    41   21   25 1
    42   22   23 ar
    43   22   24 1
    44   23   46 1
    45   25   47 1
    46   26   27 1
    47   27   48 1
    48   27   49 1
    49   27   50 1
    50   28   29 2
    51   28   30 1
    52   30   31 1
    53   31   51 1
    54   31   52 1
    55   31   53 1
