@<TRIPOS>MOLECULE
ZINC48605164
   59    62     0     0     0
SMALL
USER_CHARGES

@<TRIPOS>ATOM
      1 C1         -0.0343    1.5382   -0.0110 C.3       1 <0>        -0.1781
      2 C2         -0.0078    0.0062   -0.0098 C.3       1 <0>         0.0624
      3 C3          0.5677   -0.5007   -1.3281 C.3       1 <0>        -0.1420
      4 C4          2.0817   -0.2915   -1.3636 C.3       1 <0>         0.1385
      5 C5          2.6973   -1.0666   -0.1985 C.3       1 <0>        -0.1458
      6 C6          2.1377   -0.5646    1.1285 C.3       1 <0>         0.0604
      7 N1          0.6868   -0.5089    1.1569 N.4       1 <0>        -0.4913
      8 C7          2.7542    0.7962    1.4691 C.3       1 <0>        -0.1741
      9 C8          2.5920   -1.5553    2.2255 C.3       1 <0>        -0.1795
     10 N2          2.6132   -0.8152   -2.6280 N.am      1 <0>        -0.7010
     11 C9          3.7672   -0.3293   -3.1267 C.2       1 <0>         0.5198
     12 O1          4.3669    0.5412   -2.5306 O.2       1 <0>        -0.5047
     13 C10         4.3078   -0.8620   -4.4128 C.2       1 <0>         0.5053
     14 O2          3.7079   -1.7327   -5.0091 O.2       1 <0>        -0.4936
     15 N3          5.4617   -0.3761   -4.9116 N.am      1 <0>        -0.6346
     16 C11         6.0172   -0.9396   -6.0618 C.ar      1 <0>         0.1319
     17 C12         5.1899   -1.4088   -7.0763 C.ar      1 <0>        -0.1140
     18 C13         5.7347   -1.9648   -8.2125 C.ar      1 <0>        -0.0780
     19 C14         7.1220   -2.0597   -8.3495 C.ar      1 <0>        -0.0551
     20 C15         7.9452   -1.5878   -7.3296 C.ar      1 <0>        -0.0720
     21 C16         7.3985   -1.0269   -6.1968 C.ar      1 <0>        -0.1147
     22 C17         9.3745   -1.8220   -7.7540 C.3       1 <0>        -0.0432
     23 C18         9.3044   -2.4730   -9.1135 C.ar      1 <0>        -0.0901
     24 C19         7.9587   -2.6043   -9.4470 C.ar      1 <0>        -0.0643
     25 C20         7.6096   -3.1835  -10.6683 C.ar      1 <0>        -0.0927
     26 C21         8.5944   -3.6189  -11.5307 C.ar      1 <0>        -0.1189
     27 C22         9.9281   -3.4842  -11.1906 C.ar      1 <0>        -0.1075
     28 C23        10.2817   -2.9106   -9.9817 C.ar      1 <0>        -0.1015
     29 C24        -1.4762   -0.4725    0.0675 C.3       1 <0>        -0.1799
     30 H1          0.9868    1.9193   -0.0194 H         1 <0>         0.0829
     31 H2         -0.5614    1.8918   -0.8972 H         1 <0>         0.1061
     32 H3         -0.5474    1.8935    0.8827 H         1 <0>         0.0860
     33 H4          0.3466   -1.5650   -1.4374 H         1 <0>         0.0993
     34 H5          0.1082    0.0406   -2.1586 H         1 <0>         0.1192
     35 H6          2.3226    0.7650   -1.2884 H         1 <0>         0.1118
     36 H7          2.4711   -2.1296   -0.3110 H         1 <0>         0.0953
     37 H8          3.7821   -0.9353   -0.2097 H         1 <0>         0.1154
     38 H9          0.4027    0.0455    1.9705 H         1 <0>         0.4281
     39 H10         2.5135    1.5113    0.6825 H         1 <0>         0.0827
     40 H11         2.3511    1.1504    2.4179 H         1 <0>         0.0831
     41 H12         3.8365    0.6949    1.5493 H         1 <0>         0.1062
     42 H13         3.6811   -1.5872    2.2579 H         1 <0>         0.1072
     43 H14         2.2092   -1.2277    3.1921 H         1 <0>         0.0847
     44 H15         2.2059   -2.5493    1.9998 H         1 <0>         0.0824
     45 H16         2.1338   -1.5110   -3.1044 H         1 <0>         0.4202
     46 H17         5.9063    0.3652   -4.4713 H         1 <0>         0.4241
     47 H18         4.1173   -1.3374   -6.9728 H         1 <0>         0.1421
     48 H19         5.0890   -2.3282   -8.9983 H         1 <0>         0.1307
     49 H20         8.0423   -0.6592   -5.4115 H         1 <0>         0.1324
     50 H21         9.9069   -0.8731   -7.8193 H         1 <0>         0.1041
     51 H22         9.8725   -2.4844   -7.0459 H         1 <0>         0.1032
     52 H23         6.5692   -3.2910  -10.9376 H         1 <0>         0.1235
     53 H24         8.3227   -4.0671  -12.4751 H         1 <0>         0.1288
     54 H25        10.6950   -3.8268  -11.8696 H         1 <0>         0.1299
     55 H26        11.3238   -2.8063   -9.7181 H         1 <0>         0.1271
     56 H27        -2.0263   -0.0979   -0.7957 H         1 <0>         0.1082
     57 H28        -1.5034   -1.5621    0.0708 H         1 <0>         0.0830
     58 H29        -1.9338   -0.0948    0.9818 H         1 <0>         0.0858
     59 H30         0.3340   -1.4520    1.3489 H         1 <0>         0.4251
@<TRIPOS>BOND
     1    1    2 1
     2    1   30 1
     3    1   31 1
     4    1   32 1
     5    2    7 1
     6    2    3 1
     7    2   29 1
     8    3    4 1
     9    3   33 1
    10    3   34 1
    11    4    5 1
    12    4   10 1
    13    4   35 1
    14    5    6 1
    15    5   36 1
    16    5   37 1
    17    6    7 1
    18    6    8 1
    19    6    9 1
    20    7   38 1
    21    7   59 1
    22    8   39 1
    23    8   40 1
    24    8   41 1
    25    9   42 1
    26    9   43 1
    27    9   44 1
    28   10   11 am
    29   10   45 1
    30   11   12 2
    31   11   13 1
    32   13   14 2
    33   13   15 am
    34   15   16 1
    35   15   46 1
    36   16   21 ar
    37   16   17 ar
    38   17   18 ar
    39   17   47 1
    40   18   19 ar
    41   18   48 1
    42   19   24 1
    43   19   20 ar
    44   20   21 ar
    45   20   22 1
    46   21   49 1
    47   22   23 1
    48   22   50 1
    49   22   51 1
    50   23   28 ar
    51   23   24 ar
    52   24   25 ar
    53   25   26 ar
    54   25   52 1
    55   26   27 ar
    56   26   53 1
    57   27   28 ar
    58   27   54 1
    59   28   55 1
    60   29   56 1
    61   29   57 1
    62   29   58 1
