@<TRIPOS>MOLECULE
ZINC13327372
   51    53     0     0     0
SMALL
USER_CHARGES
N-[(6S)-3-carbamoyl-6-propyl-4,5,6,7-tetrahydrobenzothiophen-2-yl]-3-ethyl-5-methyl-isoxazole-4-carboxamide
@<TRIPOS>ATOM
      1 C1         -9.7374    8.0719    0.9933 C.3       1 <0>        -0.1543
      2 C2         -8.7865    6.9729    0.5150 C.3       1 <0>        -0.1279
      3 C3         -7.9471    7.4970   -0.6519 C.3       1 <0>        -0.1140
      4 C4         -6.9962    6.3979   -1.1303 C.3       1 <0>        -0.0828
      5 H1         -7.5644    5.4990   -1.3694 H         1 <0>         0.0774
      6 C5         -6.2440    6.8761   -2.3756 C.3       1 <0>        -0.1133
      7 C6         -5.4810    5.7081   -3.0028 C.3       1 <0>        -0.0599
      8 C7         -4.6292    5.0450   -1.9275 C.2       1 <0>        -0.0662
      9 C8         -4.8869    5.2419   -0.6163 C.2       1 <0>        -0.2027
     10 S1         -3.6644    4.2844    0.2340 S.3       1 <0>         0.2314
     11 C9         -2.8157    3.6381   -1.1313 C.2       1 <0>         0.0666
     12 C10        -3.5027    4.1725   -2.2125 C.2       1 <0>        -0.2211
     13 C11        -3.1063    3.8684   -3.5907 C.2       1 <0>         0.5832
     14 O1         -3.5875    2.9091   -4.1648 O.2       1 <0>        -0.5309
     15 N1         -2.2090    4.6511   -4.2221 N.am      1 <0>        -0.8483
     16 N2         -1.7207    2.7891   -1.1414 N.am      1 <0>        -0.6100
     17 C12        -1.1823    2.3698    0.0208 C.2       1 <0>         0.6029
     18 O2         -1.6576    2.7367    1.0784 O.2       1 <0>        -0.4779
     19 C13        -0.0179    1.4669    0.0101 C.2       1 <0>        -0.2664
     20 C14         1.3172    1.7910   -0.0009 C.2       1 <0>         0.0368
     21 O3          1.9842    0.6347   -0.0135 O.3       1 <0>         0.1038
     22 N3          1.2604   -0.3307   -0.0118 N.2       1 <0>        -0.3453
     23 C15         0.0021   -0.0041    0.0020 C.2       1 <0>         0.0686
     24 C16        -1.1836   -0.9342    0.0088 C.3       1 <0>        -0.0525
     25 C17        -1.5991   -1.2413   -1.4313 C.3       1 <0>        -0.1475
     26 C18         1.9106    3.1763    0.0004 C.3       1 <0>        -0.0845
     27 C19        -5.9761    6.0836   -0.0264 C.3       1 <0>        -0.0307
     28 H2         -9.1589    8.9356    1.3210 H         1 <0>         0.0535
     29 H3        -10.3954    8.3645    0.1751 H         1 <0>         0.0532
     30 H4        -10.3354    7.6985    1.8247 H         1 <0>         0.0535
     31 H5         -9.3650    6.1091    0.1873 H         1 <0>         0.0617
     32 H6         -8.1285    6.6802    1.3332 H         1 <0>         0.0634
     33 H7         -7.3686    8.3607   -0.3242 H         1 <0>         0.0648
     34 H8         -8.6051    7.7896   -1.4702 H         1 <0>         0.0659
     35 H9         -5.5400    7.6595   -2.0948 H         1 <0>         0.0674
     36 H10        -6.9575    7.2724   -3.0981 H         1 <0>         0.0712
     37 H11        -4.8382    6.0784   -3.8015 H         1 <0>         0.0725
     38 H12        -6.1887    4.9840   -3.4066 H         1 <0>         0.0796
     39 H13        -1.8255    5.4157   -3.7646 H         1 <0>         0.4035
     40 H14        -1.9467    4.4499   -5.1341 H         1 <0>         0.4038
     41 H15        -1.3416    2.4965   -1.9850 H         1 <0>         0.4212
     42 H16        -0.9151   -1.8615    0.5150 H         1 <0>         0.0931
     43 H17        -2.0136   -0.4611    0.5334 H         1 <0>         0.0892
     44 H18        -1.8676   -0.3141   -1.9376 H         1 <0>         0.0555
     45 H19        -0.7691   -1.7145   -1.9560 H         1 <0>         0.0618
     46 H20        -2.4567   -1.9141   -1.4265 H         1 <0>         0.0729
     47 H21         2.0634    3.5051    1.0284 H         1 <0>         0.1022
     48 H22         2.8668    3.1624   -0.5225 H         1 <0>         0.0973
     49 H23         1.2307    3.8633   -0.5035 H         1 <0>         0.0917
     50 H24        -5.5546    7.0119    0.3593 H         1 <0>         0.0840
     51 H25        -6.4651    5.5390    0.7813 H         1 <0>         0.0824
@<TRIPOS>BOND
     1    1    2 1
     2    1   28 1
     3    1   29 1
     4    1   30 1
     5    2    3 1
     6    2   31 1
     7    2   32 1
     8    3    4 1
     9    3   33 1
    10    3   34 1
    11    4    5 1
    12    4   27 1
    13    4    6 1
    14    6    7 1
    15    6   35 1
    16    6   36 1
    17    7    8 1
    18    7   37 1
    19    7   38 1
    20    8   12 1
    21    8    9 2
    22    9   10 1
    23    9   27 1
    24   10   11 1
    25   11   12 2
    26   11   16 1
    27   12   13 1
    28   13   14 2
    29   13   15 am
    30   15   39 1
    31   15   40 1
    32   16   17 am
    33   16   41 1
    34   17   18 2
    35   17   19 1
    36   19   23 1
    37   19   20 2
    38   20   21 1
    39   20   26 1
    40   21   22 1
    41   22   23 2
    42   23   24 1
    43   24   25 1
    44   24   42 1
    45   24   43 1
    46   25   44 1
    47   25   45 1
    48   25   46 1
    49   26   47 1
    50   26   48 1
    51   26   49 1
    52   27   50 1
    53   27   51 1
