@<TRIPOS>MOLECULE
ZINC65382969
   39    41     0     0     0
SMALL
USER_CHARGES

@<TRIPOS>ATOM
      1 C1         -0.0187    1.5258    0.0104 C.3       1 <0>        -0.1462
      2 C2          0.0021   -0.0041    0.0020 C.3       1 <0>        -0.1109
      3 C3         -1.4333   -0.5336    0.0129 C.3       1 <0>        -0.1062
      4 S1         -1.4087   -2.3475    0.0029 S.3       1 <0>        -0.0012
      5 C4         -3.1124   -2.7969    0.0168 C.ar      1 <0>         0.3002
      6 N1         -4.0332   -1.8435    0.0252 N.ar      1 <0>        -0.5228
      7 C5         -5.3204   -2.1470    0.0352 C.ar      1 <0>         0.1780
      8 C6         -5.7010   -3.4799    0.0369 C.ar      1 <0>        -0.2045
      9 C7         -4.7124   -4.4516    0.0279 C.ar      1 <0>         0.1849
     10 N2         -3.4430   -4.0806    0.0130 N.ar      1 <0>        -0.4962
     11 C8         -7.1581   -3.8644    0.0487 C.3       1 <0>         0.0707
     12 H1         -7.7625   -2.9573    0.0549 H         1 <0>         0.1030
     13 C9         -7.4482   -4.6584    1.3126 C.3       1 <0>        -0.1278
     14 C10        -8.9130   -4.9508    1.4275 C.2       1 <0>         0.5234
     15 O1         -9.5486   -4.4153    2.3107 O.2       1 <0>        -0.5395
     16 N3         -9.5407   -5.7764    0.5965 N.am      1 <0>        -0.7121
     17 C11        -8.8218   -6.6142   -0.3488 C.3       1 <0>         0.1839
     18 C12        -8.1202   -5.7899   -1.4095 C.2       1 <0>         0.1060
     19 C13        -7.4638   -4.6413   -1.1892 C.2       1 <0>        -0.2200
     20 S2         -6.9661   -4.1662   -2.8364 S.3       1 <0>         0.0736
     21 C14        -7.5758   -5.5063   -3.6487 C.2       1 <0>         0.3442
     22 N4         -8.1269   -6.1987   -2.6908 N.2       1 <0>        -0.5976
     23 N5         -7.5125   -5.7996   -5.0019 N.pl3     1 <0>        -0.8022
     24 H2          1.0039    1.9031    0.0027 H         1 <0>         0.0633
     25 H3         -0.5459    1.8868   -0.8726 H         1 <0>         0.0581
     26 H4         -0.5289    1.8773    0.9072 H         1 <0>         0.0584
     27 H5          0.5123   -0.3556   -0.8948 H         1 <0>         0.0737
     28 H6          0.5293   -0.3651    0.8851 H         1 <0>         0.0740
     29 H7         -1.9435   -0.1821    0.9097 H         1 <0>         0.0945
     30 H8         -1.9605   -0.1726   -0.8702 H         1 <0>         0.0941
     31 H9         -6.0661   -1.3657    0.0424 H         1 <0>         0.1727
     32 H10        -4.9757   -5.4991    0.0293 H         1 <0>         0.1692
     33 H11        -6.8957   -5.5975    1.2817 H         1 <0>         0.0968
     34 H12        -7.1276   -4.0822    2.1805 H         1 <0>         0.1146
     35 H13       -10.5093   -5.8210    0.6214 H         1 <0>         0.4083
     36 H14        -8.0807   -7.2037    0.1910 H         1 <0>         0.0937
     37 H15        -9.5272   -7.2898   -0.8327 H         1 <0>         0.1105
     38 H16        -7.0700   -5.1875   -5.6106 H         1 <0>         0.4208
     39 H17        -7.9106   -6.6168   -5.3403 H         1 <0>         0.4163
@<TRIPOS>BOND
     1    1    2 1
     2    1   24 1
     3    1   25 1
     4    1   26 1
     5    2    3 1
     6    2   27 1
     7    2   28 1
     8    3    4 1
     9    3   29 1
    10    3   30 1
    11    4    5 1
    12    5   10 ar
    13    5    6 ar
    14    6    7 ar
    15    7    8 ar
    16    7   31 1
    17    8    9 ar
    18    8   11 1
    19    9   10 ar
    20    9   32 1
    21   11   12 1
    22   11   19 1
    23   11   13 1
    24   13   14 1
    25   13   33 1
    26   13   34 1
    27   14   15 2
    28   14   16 am
    29   16   17 1
    30   16   35 1
    31   17   18 1
    32   17   36 1
    33   17   37 1
    34   18   22 1
    35   18   19 2
    36   19   20 1
    37   20   21 1
    38   21   22 2
    39   21   23 1
    40   23   38 1
    41   23   39 1
