@<TRIPOS>MOLECULE
ZINC13268498
   54    56     0     0     0
SMALL
USER_CHARGES
4-[(4S)-5-(2-methoxyethoxycarbonyl)-6-methyl-2-oxo-4-[3-(trifluoromethyl)phenyl]-3,4-dihydropyrimidin-1-yl]benzoic acid
@<TRIPOS>ATOM
      1 C1         -2.9947    1.3573   -3.6528 C.3       1 <0>        -0.1379
      2 C2         -2.7320    1.6901   -2.2067 C.2       1 <0>         0.2708
      3 C3         -1.5133    2.1404   -1.8394 C.2       1 <0>        -0.3018
      4 C4         -1.2920    2.4626   -0.3755 C.3       1 <0>         0.2543
      5 H1         -0.9895    3.5073   -0.3040 H         1 <0>         0.0913
      6 N1         -2.4324    2.2571    0.5332 N.am      1 <0>        -0.7139
      7 C5         -3.5905    1.8008    0.0167 C.2       1 <0>         0.7019
      8 O1         -4.5376    1.6284    0.7588 O.2       1 <0>        -0.5369
      9 N2         -3.7320    1.5314   -1.2873 N.am      1 <0>        -0.4866
     10 C6         -4.9691    1.0622   -1.7331 C.ar      1 <0>         0.0977
     11 C7         -5.2973   -0.2812   -1.5813 C.ar      1 <0>        -0.1094
     12 C8         -6.5184   -0.7463   -2.0145 C.ar      1 <0>        -0.0686
     13 C9         -7.4244    0.1307   -2.6179 C.ar      1 <0>        -0.0913
     14 C10        -7.0888    1.4788   -2.7739 C.ar      1 <0>        -0.0776
     15 C11        -5.8682    1.9379   -2.3331 C.ar      1 <0>        -0.1152
     16 C12        -8.7314   -0.3649   -3.0884 C.2       1 <0>         0.4866
     17 O2         -9.5180    0.3988   -3.6123 O.co2     1 <0>        -0.6259
     18 C13        -0.1465    1.6169    0.1182 C.ar      1 <0>        -0.1051
     19 C14        -0.3681    0.3056    0.4962 C.ar      1 <0>        -0.0661
     20 C15         0.6835   -0.4719    0.9431 C.ar      1 <0>        -0.1254
     21 C16         1.9572    0.0616    1.0122 C.ar      1 <0>        -0.0694
     22 C17         2.1787    1.3725    0.6343 C.ar      1 <0>        -0.1891
     23 C18         1.1266    2.1504    0.1877 C.ar      1 <0>        -0.0187
     24 C19         3.5669    1.9541    0.7096 C.3       1 <0>         0.5094
     25 F1          4.4737    0.9514    1.0695 F         1 <0>        -0.1802
     26 F2          3.9215    2.4775   -0.5384 F         1 <0>        -0.1727
     27 F3          3.5942    2.9733    1.6676 F         1 <0>        -0.1786
     28 C20        -0.4775    2.3051   -2.7894 C.2       1 <0>         0.5371
     29 O3          0.6417    2.6104   -2.4223 O.2       1 <0>        -0.5143
     30 O4         -0.7309    2.1237   -4.1023 O.3       1 <0>        -0.3401
     31 C21         0.3826    2.2002   -4.9946 C.3       1 <0>         0.0662
     32 C22        -0.1105    2.0742   -6.4375 C.3       1 <0>         0.0610
     33 O5         -0.9069    3.2131   -6.7699 O.3       1 <0>        -0.3854
     34 C23        -1.5080    3.1443   -8.0645 C.3       1 <0>         0.0304
     35 H2         -4.0113    0.9790   -3.7597 H         1 <0>         0.0879
     36 H3         -2.8753    2.2549   -4.2596 H         1 <0>         0.1117
     37 H4         -2.2874    0.5974   -3.9851 H         1 <0>         0.1015
     38 H5         -2.3520    2.4461    1.4812 H         1 <0>         0.4334
     39 H6         -4.5950   -0.9591   -1.1190 H         1 <0>         0.1194
     40 H7         -6.7745   -1.7884   -1.8921 H         1 <0>         0.1404
     41 H8         -7.7865    2.1593   -3.2393 H         1 <0>         0.1373
     42 H9         -5.6083    2.9794   -2.4529 H         1 <0>         0.1220
     43 H10        -1.3629   -0.1113    0.4419 H         1 <0>         0.1242
     44 H11         0.5105   -1.4963    1.2380 H         1 <0>         0.1339
     45 H12         2.7790   -0.5460    1.3611 H         1 <0>         0.1358
     46 H13         1.2997    3.1748   -0.1075 H         1 <0>         0.1375
     47 H14         0.8867    3.1579   -4.8653 H         1 <0>         0.0781
     48 H15         1.0791    1.3906   -4.7767 H         1 <0>         0.0820
     49 H16         0.7452    2.0202   -7.1105 H         1 <0>         0.0707
     50 H17        -0.7100    1.1695   -6.5388 H         1 <0>         0.0631
     51 H18        -0.7354    2.9787   -8.8154 H         1 <0>         0.0403
     52 H19        -2.2220    2.3211   -8.0903 H         1 <0>         0.0455
     53 H20        -2.0250    4.0804   -8.2753 H         1 <0>         0.0873
     54 O6         -9.0532   -1.6646   -2.9373 O.co2     1 <0>        -0.7485
@<TRIPOS>BOND
     1    1    2 1
     2    1   35 1
     3    1   36 1
     4    1   37 1
     5    2    9 1
     6    2    3 2
     7    3    4 1
     8    3   28 1
     9    4    5 1
    10    4    6 1
    11    4   18 1
    12    6    7 am
    13    6   38 1
    14    7    8 2
    15    7    9 am
    16    9   10 1
    17   10   15 ar
    18   10   11 ar
    19   11   12 ar
    20   11   39 1
    21   12   13 ar
    22   12   40 1
    23   13   14 ar
    24   13   16 1
    25   14   15 ar
    26   14   41 1
    27   15   42 1
    28   16   17 2
    29   16   54 1
    30   18   23 ar
    31   18   19 ar
    32   19   20 ar
    33   19   43 1
    34   20   21 ar
    35   20   44 1
    36   21   22 ar
    37   21   45 1
    38   22   23 ar
    39   22   24 1
    40   23   46 1
    41   24   25 1
    42   24   26 1
    43   24   27 1
    44   28   29 2
    45   28   30 1
    46   30   31 1
    47   31   32 1
    48   31   47 1
    49   31   48 1
    50   32   33 1
    51   32   49 1
    52   32   50 1
    53   33   34 1
    54   34   51 1
    55   34   52 1
    56   34   53 1
