@<TRIPOS>MOLECULE
ZINC29093304
   63    66     0     0     0
SMALL
USER_CHARGES
2-[(4R)-4-methyl-2,5-dioxo-4-(p-tolyl)imidazolidin-1-yl]-N-[(2S)-2-morpholino-2-phenyl-ethyl]acetamide
@<TRIPOS>ATOM
      1 C1          0.0993    1.3517    0.3797 C.3       1 <0>        -0.1212
      2 C2          0.0454   -0.1544    0.3767 C.ar      1 <0>        -0.0752
      3 C3          0.1538   -0.8476   -0.8143 C.ar      1 <0>        -0.1150
      4 C4          0.1093   -2.2292   -0.8165 C.ar      1 <0>        -0.1064
      5 C5         -0.0542   -2.9173    0.3713 C.ar      1 <0>        -0.1012
      6 C6         -0.1678   -2.2239    1.5617 C.ar      1 <0>        -0.0921
      7 C7         -0.1180   -0.8425    1.5645 C.ar      1 <0>        -0.1191
      8 C8         -0.1089   -4.4233    0.3682 C.3       1 <0>         0.1597
      9 C9         -0.6901   -4.9332   -0.9356 C.2       1 <0>         0.5414
     10 O1         -0.2408   -4.7724   -2.0501 O.2       1 <0>        -0.4601
     11 N1         -1.8106   -5.6018   -0.5983 N.am      1 <0>        -0.5593
     12 C10        -2.0160   -5.5853    0.7237 C.2       1 <0>         0.7216
     13 O2         -2.9620   -6.1209    1.2671 O.2       1 <0>        -0.5386
     14 N2         -1.0585   -4.9094    1.3841 N.am      1 <0>        -0.7260
     15 C11        -2.6949   -6.2640   -1.5604 C.3       1 <0>         0.0973
     16 C12        -2.2442   -7.6883   -1.7591 C.2       1 <0>         0.5064
     17 O3         -1.2794   -8.1087   -1.1564 O.2       1 <0>        -0.5286
     18 N3         -2.9134   -8.4948   -2.6066 N.am      1 <0>        -0.7321
     19 C13        -2.4753   -9.8794   -2.7998 C.3       1 <0>         0.1335
     20 C14        -3.4781  -10.6115   -3.6938 C.3       1 <0>         0.1169
     21 H1         -3.5834  -10.1048   -4.6645 H         1 <0>         0.0588
     22 C15        -4.8163  -10.6715   -3.0033 C.ar      1 <0>        -0.0842
     23 C16        -5.0494  -11.6244   -2.0294 C.ar      1 <0>        -0.0902
     24 C17        -6.2755  -11.6767   -1.3930 C.ar      1 <0>        -0.1196
     25 C18        -7.2716  -10.7822   -1.7373 C.ar      1 <0>        -0.1163
     26 C19        -7.0400   -9.8323   -2.7146 C.ar      1 <0>        -0.1173
     27 C20        -5.8126   -9.7773   -3.3479 C.ar      1 <0>        -0.1205
     28 N4         -2.9988  -11.9759   -3.9521 N.3       1 <0>        -0.5271
     29 C21        -1.6583  -11.9579   -4.5555 C.3       1 <0>         0.0096
     30 C22        -1.1738  -13.3968   -4.7523 C.3       1 <0>         0.0626
     31 O4         -2.1198  -14.1074   -5.5557 O.3       1 <0>        -0.3840
     32 C23        -3.4359  -14.1452   -4.9975 C.3       1 <0>         0.0625
     33 C24        -3.9433  -12.7139   -4.8033 C.3       1 <0>         0.0184
     34 C25         1.2838   -5.0115    0.6033 C.3       1 <0>        -0.1449
     35 H2          0.2325    1.7159   -0.6497 H         1 <0>         0.0675
     36 H3          0.9439    1.6871    0.9995 H         1 <0>         0.0730
     37 H4         -0.8392    1.7513    0.7914 H         1 <0>         0.0723
     38 H5          0.2770   -0.3098   -1.7428 H         1 <0>         0.1268
     39 H6          0.1977   -2.7709   -1.7466 H         1 <0>         0.1392
     40 H7         -0.2958   -2.7615    2.4897 H         1 <0>         0.1223
     41 H8         -0.2071   -0.3007    2.4945 H         1 <0>         0.1270
     42 H9         -0.8888   -4.6852    2.4476 H         1 <0>         0.4684
     43 H10        -3.7258   -6.2557   -1.1768 H         1 <0>         0.1305
     44 H11        -2.6569   -5.7299   -2.5213 H         1 <0>         0.1274
     45 H12        -3.7885   -8.1135   -3.1532 H         1 <0>         0.4205
     46 H13        -1.4844   -9.8872   -3.2774 H         1 <0>         0.0725
     47 H14        -2.4163  -10.3848   -1.8246 H         1 <0>         0.0825
     48 H15        -4.2726  -12.3259   -1.7633 H         1 <0>         0.1297
     49 H16        -6.4562  -12.4185   -0.6292 H         1 <0>         0.1223
     50 H17        -8.2306  -10.8252   -1.2424 H         1 <0>         0.1215
     51 H18        -7.8183   -9.1335   -2.9835 H         1 <0>         0.1229
     52 H19        -5.6318   -9.0355   -4.1117 H         1 <0>         0.1192
     53 H20        -1.7011  -11.4470   -5.5287 H         1 <0>         0.0469
     54 H21        -0.9641  -11.4229   -3.8908 H         1 <0>         0.0934
     55 H22        -0.1955  -13.3887   -5.2552 H         1 <0>         0.1013
     56 H23        -1.0786  -13.8888   -3.7731 H         1 <0>         0.0623
     57 H24        -4.1084  -14.6852   -5.6803 H         1 <0>         0.1003
     58 H25        -3.4077  -14.6612   -4.0265 H         1 <0>         0.0614
     59 H26        -4.9317  -12.7355   -4.3211 H         1 <0>         0.0919
     60 H27        -4.0229  -12.2153   -5.7806 H         1 <0>         0.0445
     61 H28         1.2237   -6.1098    0.5977 H         1 <0>         0.0753
     62 H29         1.6664   -4.6702    1.5765 H         1 <0>         0.0827
     63 H30         1.9625   -4.6773   -0.1952 H         1 <0>         0.0849
@<TRIPOS>BOND
     1    1    2 1
     2    1   35 1
     3    1   36 1
     4    1   37 1
     5    2    7 ar
     6    2    3 ar
     7    3    4 ar
     8    3   38 1
     9    4    5 ar
    10    4   39 1
    11    5    6 ar
    12    5    8 1
    13    6    7 ar
    14    6   40 1
    15    7   41 1
    16    8   14 1
    17    8    9 1
    18    8   34 1
    19    9   10 2
    20    9   11 am
    21   11   12 am
    22   11   15 1
    23   12   13 2
    24   12   14 am
    25   14   42 1
    26   15   16 1
    27   15   43 1
    28   15   44 1
    29   16   17 2
    30   16   18 am
    31   18   19 1
    32   18   45 1
    33   19   20 1
    34   19   46 1
    35   19   47 1
    36   20   21 1
    37   20   22 1
    38   20   28 1
    39   22   27 ar
    40   22   23 ar
    41   23   24 ar
    42   23   48 1
    43   24   25 ar
    44   24   49 1
    45   25   26 ar
    46   25   50 1
    47   26   27 ar
    48   26   51 1
    49   27   52 1
    50   28   33 1
    51   28   29 1
    52   29   30 1
    53   29   53 1
    54   29   54 1
    55   30   31 1
    56   30   55 1
    57   30   56 1
    58   31   32 1
    59   32   33 1
    60   32   57 1
    61   32   58 1
    62   33   59 1
    63   33   60 1
    64   34   61 1
    65   34   62 1
    66   34   63 1
