@<TRIPOS>MOLECULE
ZINC64380732
   59    62     0     0     0
SMALL
USER_CHARGES

@<TRIPOS>ATOM
      1 C1         -0.0151    1.4940   -0.2306 C.3       1 <0>        -0.1480
      2 C2          0.0076   -0.0164    0.0124 C.3       1 <0>        -0.0926
      3 C3          0.7725   -0.3138    1.3037 C.3       1 <0>        -0.1461
      4 C4         -1.4266   -0.5342    0.1385 C.3       1 <0>         0.1489
      5 H1         -1.4107   -1.6113    0.3051 H         1 <0>         0.1345
      6 C5         -2.1827   -0.2332   -1.1298 C.2       1 <0>         0.5221
      7 O1         -3.1749    0.4634   -1.0935 O.2       1 <0>        -0.5231
      8 N1         -1.7564   -0.7381   -2.3045 N.am      1 <0>        -0.7318
      9 C6         -2.4914   -0.4454   -3.5375 C.3       1 <0>         0.1266
     10 C7         -1.8025   -1.1339   -4.7175 C.3       1 <0>        -0.1059
     11 C8         -2.5586   -0.8328   -5.9858 C.2       1 <0>         0.0693
     12 C9         -2.2928    0.1485   -6.8758 C.ar      1 <0>        -0.1801
     13 C10        -1.2582    1.1899   -6.9257 C.ar      1 <0>         0.0287
     14 C11        -1.2431    2.0510   -7.9658 C.ar      1 <0>        -0.2156
     15 C12        -2.1941    1.9747   -9.0012 C.ar      1 <0>         0.2967
     16 C13        -3.1777    1.0395   -9.0210 C.ar      1 <0>        -0.2731
     17 C14        -3.2819    0.0877   -7.9763 C.ar      1 <0>         0.3494
     18 N2         -4.1275   -0.8961   -7.7725 N.pl3     1 <0>        -0.5960
     19 C15        -3.7636   -1.5723   -6.5223 C.3       1 <0>         0.0669
     20 O2         -2.1249    2.8701  -10.0172 O.3       1 <0>        -0.2834
     21 C16        -1.0754    3.8381   -9.9586 C.3       1 <0>         0.0086
     22 N3         -2.0862    0.1249    1.2684 N.am      1 <0>        -0.4564
     23 C17        -2.4439   -0.6131    2.3445 C.2       1 <0>         0.5634
     24 O3         -2.3138   -1.8221    2.3509 O.2       1 <0>        -0.5190
     25 C18        -2.9972    0.1031    3.5105 C.ar      1 <0>        -0.2100
     26 C19        -3.6216   -0.5439    4.5684 C.ar      1 <0>        -0.0169
     27 C20        -4.1093    0.2023    5.6233 C.ar      1 <0>        -0.1640
     28 C21        -3.9786    1.5822    5.6296 C.ar      1 <0>        -0.0469
     29 C22        -3.3598    2.2376    4.5810 C.ar      1 <0>        -0.1724
     30 C23        -2.8678    1.5059    3.5171 C.ar      1 <0>         0.2004
     31 N4         -2.2410    2.0881    2.4220 N.pl3     1 <0>        -0.5917
     32 N5         -2.3183    1.4646    1.2106 N.3       1 <0>        -0.1959
     33 H2          0.9953    1.8428   -0.4440 H         1 <0>         0.0517
     34 H3         -0.6627    1.7158   -1.0788 H         1 <0>         0.0485
     35 H4         -0.3939    1.9993    0.6577 H         1 <0>         0.0850
     36 H5          0.5004   -0.5117   -0.8241 H         1 <0>         0.0820
     37 H6          1.7943    0.0551    1.2138 H         1 <0>         0.0636
     38 H7          0.2796    0.1815    2.1403 H         1 <0>         0.0578
     39 H8          0.7886   -1.3898    1.4769 H         1 <0>         0.0580
     40 H9         -0.9629   -1.2952   -2.3335 H         1 <0>         0.4077
     41 H10        -3.5131   -0.8143   -3.4476 H         1 <0>         0.0788
     42 H11        -2.5073    0.6316   -3.7041 H         1 <0>         0.0801
     43 H12        -0.7808   -0.7650   -4.8073 H         1 <0>         0.1157
     44 H13        -1.7866   -2.2110   -4.5509 H         1 <0>         0.1198
     45 H14        -0.5198    1.2660   -6.1412 H         1 <0>         0.1675
     46 H15        -0.4831    2.8173   -8.0041 H         1 <0>         0.1652
     47 H16        -3.8847    1.0208   -9.8373 H         1 <0>         0.1663
     48 H17        -3.5091   -2.6143   -6.7165 H         1 <0>         0.1697
     49 H18        -4.5880   -1.5125   -5.8118 H         1 <0>         0.1684
     50 H19        -1.1798    4.4326   -9.0510 H         1 <0>         0.0760
     51 H20        -0.1116    3.3291   -9.9508 H         1 <0>         0.0760
     52 H21        -1.1344    4.4911  -10.8294 H         1 <0>         0.1238
     53 H22        -3.7252   -1.6190    4.5662 H         1 <0>         0.1375
     54 H23        -4.5968   -0.2933    6.4498 H         1 <0>         0.1334
     55 H24        -4.3644    2.1516    6.4622 H         1 <0>         0.1340
     56 H25        -3.2619    3.3131    4.5933 H         1 <0>         0.1353
     57 H26        -1.7547    2.9221    2.5167 H         1 <0>         0.4388
     58 H27        -3.2015    1.6596    0.7635 H         1 <0>         0.3575
     59 H28        -4.8663   -1.1375   -8.3528 H         1 <0>         0.4553
@<TRIPOS>BOND
     1    1    2 1
     2    1   33 1
     3    1   34 1
     4    1   35 1
     5    2    3 1
     6    2    4 1
     7    2   36 1
     8    3   37 1
     9    3   38 1
    10    3   39 1
    11    4    5 1
    12    4    6 1
    13    4   22 1
    14    6    7 2
    15    6    8 am
    16    8    9 1
    17    8   40 1
    18    9   10 1
    19    9   41 1
    20    9   42 1
    21   10   11 1
    22   10   43 1
    23   10   44 1
    24   11   19 1
    25   11   12 2
    26   12   17 ar
    27   12   13 ar
    28   13   14 ar
    29   13   45 1
    30   14   15 ar
    31   14   46 1
    32   15   16 ar
    33   15   20 1
    34   16   17 ar
    35   16   47 1
    36   17   18 2
    37   18   19 1
    38   18   59 1
    39   19   48 1
    40   19   49 1
    41   20   21 1
    42   21   50 1
    43   21   51 1
    44   21   52 1
    45   22   32 1
    46   22   23 am
    47   23   24 2
    48   23   25 1
    49   25   30 ar
    50   25   26 ar
    51   26   27 ar
    52   26   53 1
    53   27   28 ar
    54   27   54 1
    55   28   29 ar
    56   28   55 1
    57   29   30 ar
    58   29   56 1
    59   30   31 1
    60   31   32 1
    61   31   57 1
    62   32   58 1
