@<TRIPOS>MOLECULE
ZINC55840728
   46    47     0     0     0
SMALL
USER_CHARGES

@<TRIPOS>ATOM
      1 C1          0.5921    1.4334   -0.1317 C.3       1 <0>         0.0856
      2 N1          0.5969   -0.0302   -0.1944 N.am      1 <0>        -0.6199
      3 C2          1.2580   -0.8063    0.8576 C.3       1 <0>         0.0715
      4 C3         -0.0069   -0.6628   -1.2200 C.2       1 <0>         0.5608
      5 O1         -0.4618   -0.0209   -2.1470 O.2       1 <0>        -0.5250
      6 C4         -0.1158   -2.1349   -1.2179 C.ar      1 <0>        -0.1532
      7 C5         -0.3095   -2.8206   -0.0161 C.ar      1 <0>        -0.0614
      8 C6         -0.4116   -4.1949   -0.0146 C.ar      1 <0>        -0.1994
      9 C7         -0.3220   -4.9023   -1.2055 C.ar      1 <0>         0.1314
     10 C8         -0.1280   -4.2244   -2.4100 C.ar      1 <0>         0.1070
     11 C9         -0.0310   -2.8445   -2.4181 C.ar      1 <0>        -0.0277
     12 N2         -0.0369   -4.9403   -3.6102 N.am      1 <0>        -0.6574
     13 C10        -0.5408   -4.4184   -4.7460 C.2       1 <0>         0.5441
     14 O2         -0.9967   -3.2898   -4.7474 O.2       1 <0>        -0.5130
     15 C11        -0.5400   -5.2088   -5.9778 C.2       1 <0>        -0.1920
     16 C12        -1.0442   -4.6866   -7.1144 C.2       1 <0>        -0.0204
     17 C13        -1.0434   -5.4812   -8.3529 C.ar      1 <0>        -0.0656
     18 C14        -0.5256   -6.7808   -8.3537 C.ar      1 <0>        -0.0442
     19 C15        -0.5285   -7.5194   -9.5172 C.ar      1 <0>        -0.1091
     20 C16        -1.0426   -6.9777  -10.6844 C.ar      1 <0>         0.0197
     21 C17        -1.5570   -5.6914  -10.6911 C.ar      1 <0>        -0.0452
     22 C18        -1.5655   -4.9429   -9.5334 C.ar      1 <0>        -0.0215
     23 N3         -2.1039   -5.1215  -11.9428 N.pl3     1 <0>         0.0296
     24 O3         -2.5532   -3.9991  -11.9503 O.2       1 <0>        -0.1535
     25 O4         -2.1015   -5.7783  -12.9578 O.3       1 <0>        -0.1299
     26 Cl1        -1.0416   -7.9152  -12.1455 Cl        1 <0>         0.0025
     27 O5         -0.4227   -6.2563   -1.1986 O.3       1 <0>        -0.3144
     28 C19        -0.6202   -6.8857    0.0690 C.3       1 <0>         0.0257
     29 H1          1.4692    1.8222   -0.6491 H         1 <0>         0.0571
     30 H2         -0.3103    1.8146   -0.6097 H         1 <0>         0.0776
     31 H3          0.6138    1.7525    0.9103 H         1 <0>         0.0720
     32 H4          0.5687   -0.9518    1.6894 H         1 <0>         0.0600
     33 H5          1.5574   -1.7760    0.4601 H         1 <0>         0.0806
     34 H6          2.1397   -0.2686    1.2062 H         1 <0>         0.0725
     35 H7         -0.3790   -2.2733    0.9124 H         1 <0>         0.1398
     36 H8         -0.5614   -4.7229    0.9155 H         1 <0>         0.1412
     37 H9          0.1146   -2.3175   -3.3495 H         1 <0>         0.1577
     38 H10         0.3889   -5.8118   -3.6240 H         1 <0>         0.4165
     39 H11        -0.1355   -6.2102   -5.9766 H         1 <0>         0.1365
     40 H12        -1.4487   -3.6851   -7.1156 H         1 <0>         0.1502
     41 H13        -0.1243   -7.2041   -7.4448 H         1 <0>         0.1571
     42 H14        -0.1288   -8.5227   -9.5194 H         1 <0>         0.1625
     43 H15        -1.9705   -3.9418   -9.5391 H         1 <0>         0.1690
     44 H16        -1.5451   -6.5209    0.5156 H         1 <0>         0.0599
     45 H17        -0.6836   -7.9653   -0.0673 H         1 <0>         0.1044
     46 H18         0.2176   -6.6510    0.7256 H         1 <0>         0.0601
@<TRIPOS>BOND
     1    1    2 1
     2    1   29 1
     3    1   30 1
     4    1   31 1
     5    2    3 1
     6    2    4 am
     7    3   32 1
     8    3   33 1
     9    3   34 1
    10    4    5 2
    11    4    6 1
    12    6   11 ar
    13    6    7 ar
    14    7    8 ar
    15    7   35 1
    16    8    9 ar
    17    8   36 1
    18    9   10 ar
    19    9   27 1
    20   10   11 ar
    21   10   12 1
    22   11   37 1
    23   12   13 am
    24   12   38 1
    25   13   14 2
    26   13   15 1
    27   15   16 2
    28   15   39 1
    29   16   17 1
    30   16   40 1
    31   17   22 ar
    32   17   18 ar
    33   18   19 ar
    34   18   41 1
    35   19   20 ar
    36   19   42 1
    37   20   21 ar
    38   20   26 1
    39   21   22 ar
    40   21   23 1
    41   22   43 1
    42   23   24 2
    43   23   25 1
    44   27   28 1
    45   28   44 1
    46   28   45 1
    47   28   46 1
