@<TRIPOS>MOLECULE
ZINC39661153
   65    68     0     0     0
SMALL
USER_CHARGES

@<TRIPOS>ATOM
      1 C1         -3.5969   -4.2040   -1.8327 C.3       1 <0>         0.0230
      2 O1         -2.3782   -3.7429   -1.2460 O.3       1 <0>        -0.2956
      3 C2         -2.4057   -2.5241   -0.6430 C.ar      1 <0>         0.1435
      4 C3         -3.5796   -1.7948   -0.6131 C.ar      1 <0>        -0.2118
      5 C4         -3.6073   -0.5431    0.0068 C.ar      1 <0>        -0.0612
      6 C5         -2.4479   -0.0319    0.5951 C.ar      1 <0>        -0.1704
      7 C6         -1.2766   -0.7652    0.5625 C.ar      1 <0>         0.1469
      8 C7         -1.2530   -2.0147   -0.0514 C.ar      1 <0>         0.0610
      9 O2         -0.1015   -2.7359   -0.0776 O.3       1 <0>        -0.3118
     10 C8          0.7692   -2.5276   -1.1914 C.3       1 <0>         0.0351
     11 O3         -0.1474   -0.2678    1.1346 O.3       1 <0>        -0.2962
     12 C9         -0.2446    1.0177    1.7511 C.3       1 <0>         0.0211
     13 C10        -4.8593    0.2380    0.0398 C.2       1 <0>         0.5973
     14 O4         -4.8182    1.4479    0.1526 O.2       1 <0>        -0.5215
     15 N1         -6.0481   -0.3899   -0.0551 N.am      1 <0>        -0.6124
     16 C11        -6.3060   -1.8492   -0.0677 C.3       1 <0>         0.1049
     17 C12        -7.5874   -2.0264    0.7773 C.3       1 <0>        -0.1129
     18 H1         -8.2184   -2.8062    0.3509 H         1 <0>         0.1187
     19 C13        -8.2970   -0.6639    0.7045 C.3       1 <0>        -0.0739
     20 C14        -7.3935    0.2232   -0.1640 C.3       1 <0>         0.1078
     21 C15        -8.4316   -0.0629    2.1004 C.3       1 <0>        -0.1443
     22 C16        -9.1905    1.2639    2.0087 C.3       1 <0>        -0.0082
     23 N2        -10.5168    1.0316    1.4241 N.4       1 <0>        -0.5047
     24 C17       -10.3786    0.5407    0.0477 C.3       1 <0>        -0.0097
     25 C18        -9.6696   -0.8165    0.0564 C.3       1 <0>        -0.1332
     26 C19        -7.2334   -2.3607    2.2035 C.2       1 <0>         0.5182
     27 O5         -6.2455   -1.8753    2.7128 O.2       1 <0>        -0.5003
     28 N3         -8.0146   -3.1990    2.9130 N.am      1 <0>        -0.7163
     29 C20        -7.6704   -3.5239    4.2994 C.3       1 <0>         0.0715
     30 H2         -6.5852   -3.5508    4.3977 H         1 <0>         0.1319
     31 C21        -8.2353   -4.9040    4.6420 C.3       1 <0>        -0.1312
     32 C22        -8.3861   -4.9824    6.1796 C.3       1 <0>        -0.0865
     33 S1         -8.6947   -3.2270    6.6134 S.3       1 <0>        -0.1297
     34 C23        -8.2193   -2.4485    5.2068 C.2       1 <0>         0.3345
     35 O6         -8.2991   -1.2617    4.9677 O.2       1 <0>        -0.4062
     36 H3         -3.4369   -5.1859   -2.2782 H         1 <0>         0.1090
     37 H4         -4.3663   -4.2750   -1.0638 H         1 <0>         0.0534
     38 H5         -3.9171   -3.5031   -2.6035 H         1 <0>         0.0575
     39 H6         -4.4745   -2.1920   -1.0689 H         1 <0>         0.1429
     40 H7         -2.4666    0.9356    1.0747 H         1 <0>         0.1475
     41 H8          0.2455   -2.7784   -2.1138 H         1 <0>         0.0472
     42 H9          1.0775   -1.4826   -1.2211 H         1 <0>         0.0482
     43 H10         1.6488   -3.1631   -1.0887 H         1 <0>         0.0987
     44 H11         0.7238    1.2953    2.1672 H         1 <0>         0.1095
     45 H12        -0.5455    1.7555    1.0074 H         1 <0>         0.0609
     46 H13        -0.9864    0.9828    2.5491 H         1 <0>         0.0598
     47 H14        -6.4721   -2.1969   -1.0873 H         1 <0>         0.0927
     48 H15        -5.4736   -2.3862    0.3870 H         1 <0>         0.1052
     49 H16        -7.3792    1.2428    0.2212 H         1 <0>         0.0914
     50 H17        -7.7343    0.2115   -1.1992 H         1 <0>         0.0873
     51 H18        -8.9802   -0.7523    2.7421 H         1 <0>         0.0978
     52 H19        -7.4402    0.1130    2.5179 H         1 <0>         0.1266
     53 H20        -9.3027    1.6878    3.0066 H         1 <0>         0.1390
     54 H21        -8.6332    1.9583    1.3800 H         1 <0>         0.1335
     55 H22       -11.0108    0.3464    1.9760 H         1 <0>         0.4273
     56 H23       -11.3665    0.4315   -0.3998 H         1 <0>         0.1402
     57 H24        -9.7932    1.2524   -0.5345 H         1 <0>         0.1331
     58 H25        -9.5512   -1.1718   -0.9673 H         1 <0>         0.1220
     59 H26       -10.2627   -1.5332    0.6245 H         1 <0>         0.0967
     60 H27        -8.8047   -3.5871    2.5057 H         1 <0>         0.4048
     61 H28        -9.2085   -5.0327    4.1683 H         1 <0>         0.0949
     62 H29        -7.5506   -5.6792    4.2979 H         1 <0>         0.1124
     63 H30        -9.2345   -5.6079    6.4572 H         1 <0>         0.1301
     64 H31        -7.4684   -5.3436    6.6439 H         1 <0>         0.1192
     65 H32       -11.0376    1.8958    1.4208 H         1 <0>         0.4338
@<TRIPOS>BOND
     1    1    2 1
     2    1   36 1
     3    1   37 1
     4    1   38 1
     5    2    3 1
     6    3    8 ar
     7    3    4 ar
     8    4    5 ar
     9    4   39 1
    10    5    6 ar
    11    5   13 1
    12    6    7 ar
    13    6   40 1
    14    7    8 ar
    15    7   11 1
    16    8    9 1
    17    9   10 1
    18   10   41 1
    19   10   42 1
    20   10   43 1
    21   11   12 1
    22   12   44 1
    23   12   45 1
    24   12   46 1
    25   13   14 2
    26   13   15 am
    27   15   20 1
    28   15   16 1
    29   16   17 1
    30   16   47 1
    31   16   48 1
    32   17   18 1
    33   17   19 1
    34   17   26 1
    35   19   25 1
    36   19   20 1
    37   19   21 1
    38   20   49 1
    39   20   50 1
    40   21   22 1
    41   21   51 1
    42   21   52 1
    43   22   23 1
    44   22   53 1
    45   22   54 1
    46   23   24 1
    47   23   55 1
    48   23   65 1
    49   24   25 1
    50   24   56 1
    51   24   57 1
    52   25   58 1
    53   25   59 1
    54   26   27 2
    55   26   28 am
    56   28   29 1
    57   28   60 1
    58   29   30 1
    59   29   34 1
    60   29   31 1
    61   31   32 1
    62   31   61 1
    63   31   62 1
    64   32   33 1
    65   32   63 1
    66   32   64 1
    67   33   34 1
    68   34   35 2
