@<TRIPOS>MOLECULE
ZINC39665341
   69    72     0     0     0
SMALL
USER_CHARGES

@<TRIPOS>ATOM
      1 C1         -1.7701   -1.6926   -2.6672 C.3       1 <0>        -0.1723
      2 C2         -3.0951   -1.8213   -1.9131 C.3       1 <0>         0.1120
      3 N1         -3.5754   -0.4888   -1.5389 N.pl3     1 <0>        -0.2616
      4 C3         -3.3462    0.1227   -0.3379 C.2       1 <0>        -0.0021
      5 C4         -3.9715    1.3566   -0.4070 C.2       1 <0>        -0.1489
      6 C5         -4.5506    1.4069   -1.6781 C.2       1 <0>         0.0655
      7 N2         -4.2714    0.2853   -2.2912 N.2       1 <0>        -0.2646
      8 C6         -5.3501    2.5522   -2.2441 C.3       1 <0>        -0.0758
      9 Br1        -4.0300    2.6893    0.9334 Br        1 <0>         0.0153
     10 C7         -2.5882   -0.4208    0.7992 C.2       1 <0>         0.6290
     11 O1         -3.1665   -1.0249    1.6825 O.2       1 <0>        -0.5041
     12 N3         -1.2529   -0.2494    0.8625 N.am      1 <0>        -0.6045
     13 C8         -0.3668    0.3645   -0.1542 C.3       1 <0>         0.1134
     14 C9          0.6524    1.1894    0.6633 C.3       1 <0>        -0.1122
     15 H1          1.6401    1.1335    0.2056 H         1 <0>         0.1161
     16 C10         0.6676    0.5292    2.0521 C.3       1 <0>        -0.0711
     17 C11        -0.3397   -0.6268    1.9680 C.3       1 <0>         0.1087
     18 C12         2.0613   -0.0050    2.3681 C.3       1 <0>        -0.1336
     19 C13         2.0656   -0.6047    3.7771 C.3       1 <0>        -0.0101
     20 N4          1.6823    0.4249    4.7505 N.4       1 <0>        -0.5047
     21 C14         0.3059    0.8670    4.4957 C.3       1 <0>        -0.0100
     22 C15         0.2272    1.5290    3.1172 C.3       1 <0>        -0.1477
     23 C16         0.2036    2.6243    0.7667 C.2       1 <0>         0.5072
     24 O2         -0.9796    2.8901    0.7802 O.2       1 <0>        -0.4917
     25 N5          1.1171    3.6122    0.8441 N.am      1 <0>        -0.7269
     26 C17         0.6849    4.9934    1.0713 C.3       1 <0>         0.1254
     27 C18         1.8954    5.9259    0.9938 C.3       1 <0>         0.0737
     28 H2          2.6118    5.6567    1.7700 H         1 <0>         0.0767
     29 C19         1.4394    7.3718    1.2000 C.3       1 <0>        -0.1834
     30 O3          2.5128    5.7995   -0.2887 O.3       1 <0>        -0.3070
     31 C20         3.8290    6.1265   -0.3748 C.ar      1 <0>         0.1241
     32 C21         4.4835    6.6685    0.7218 C.ar      1 <0>        -0.2125
     33 C22         5.8217    6.9995    0.6319 C.ar      1 <0>        -0.0803
     34 C23         6.5086    6.7916   -0.5498 C.ar      1 <0>        -0.1533
     35 C24         5.8585    6.2519   -1.6443 C.ar      1 <0>        -0.0777
     36 C25         4.5220    5.9135   -1.5576 C.ar      1 <0>        -0.1508
     37 H3         -1.3782   -2.6861   -2.8854 H         1 <0>         0.0881
     38 H4         -1.9340   -1.1537   -3.6004 H         1 <0>         0.0755
     39 H5         -1.0541   -1.1464   -2.0531 H         1 <0>         0.0590
     40 H6         -3.8318   -2.3066   -2.5533 H         1 <0>         0.1132
     41 H7         -2.9449   -2.4191   -1.0141 H         1 <0>         0.0979
     42 H8         -4.6814    3.2438   -2.7566 H         1 <0>         0.0812
     43 H9         -6.0859    2.1676   -2.9504 H         1 <0>         0.0809
     44 H10        -5.8612    3.0735   -1.4347 H         1 <0>         0.0820
     45 H11         0.1437   -0.4078   -0.7295 H         1 <0>         0.0914
     46 H12        -0.9399    1.0153   -0.8146 H         1 <0>         0.0981
     47 H13        -0.8920   -0.7180    2.9033 H         1 <0>         0.0913
     48 H14         0.1736   -1.5599    1.7357 H         1 <0>         0.0890
     49 H15         2.3287   -0.7748    1.6442 H         1 <0>         0.1219
     50 H16         2.7835    0.8098    2.3172 H         1 <0>         0.0983
     51 H17         1.3550   -1.4299    3.8227 H         1 <0>         0.1330
     52 H18         3.0644   -0.9726    4.0120 H         1 <0>         0.1403
     53 H19         1.7449    0.0443    5.6829 H         1 <0>         0.4343
     54 H20        -0.3629    0.0067    4.5241 H         1 <0>         0.1344
     55 H21         0.0075    1.5841    5.2605 H         1 <0>         0.1388
     56 H22         0.8836    2.3989    3.0932 H         1 <0>         0.0957
     57 H23        -0.7986    1.8410    2.9214 H         1 <0>         0.1277
     58 H24         2.0608    3.4087    0.7494 H         1 <0>         0.4003
     59 H25        -0.0414    5.2768    0.3096 H         1 <0>         0.0881
     60 H26         0.2272    5.0734    2.0574 H         1 <0>         0.0865
     61 H27         2.3018    8.0361    1.1448 H         1 <0>         0.0726
     62 H28         0.7231    7.6411    0.4239 H         1 <0>         0.0756
     63 H29         0.9685    7.4682    2.1783 H         1 <0>         0.0764
     64 H30         3.9472    6.8318    1.6449 H         1 <0>         0.1270
     65 H31         6.3316    7.4215    1.4854 H         1 <0>         0.1256
     66 H32         7.5547    7.0514   -0.6182 H         1 <0>         0.1264
     67 H33         6.3972    6.0908   -2.5664 H         1 <0>         0.1317
     68 H34         4.0158    5.4879   -2.4114 H         1 <0>         0.1302
     69 H35         2.3077    1.2125    4.6688 H         1 <0>         0.4274
@<TRIPOS>BOND
     1    1    2 1
     2    1   37 1
     3    1   38 1
     4    1   39 1
     5    2    3 1
     6    2   40 1
     7    2   41 1
     8    3    7 1
     9    3    4 1
    10    4    5 2
    11    4   10 1
    12    5    6 1
    13    5    9 1
    14    6    7 2
    15    6    8 1
    16    8   42 1
    17    8   43 1
    18    8   44 1
    19   10   11 2
    20   10   12 am
    21   12   17 1
    22   12   13 1
    23   13   14 1
    24   13   45 1
    25   13   46 1
    26   14   15 1
    27   14   16 1
    28   14   23 1
    29   16   22 1
    30   16   17 1
    31   16   18 1
    32   17   47 1
    33   17   48 1
    34   18   19 1
    35   18   49 1
    36   18   50 1
    37   19   20 1
    38   19   51 1
    39   19   52 1
    40   20   21 1
    41   20   53 1
    42   20   69 1
    43   21   22 1
    44   21   54 1
    45   21   55 1
    46   22   56 1
    47   22   57 1
    48   23   24 2
    49   23   25 am
    50   25   26 1
    51   25   58 1
    52   26   27 1
    53   26   59 1
    54   26   60 1
    55   27   28 1
    56   27   29 1
    57   27   30 1
    58   29   61 1
    59   29   62 1
    60   29   63 1
    61   30   31 1
    62   31   36 ar
    63   31   32 ar
    64   32   33 ar
    65   32   64 1
    66   33   34 ar
    67   33   65 1
    68   34   35 ar
    69   34   66 1
    70   35   36 ar
    71   35   67 1
    72   36   68 1
