@<TRIPOS>MOLECULE
ZINC59879328
   58    59     0     0     0
SMALL
USER_CHARGES

@<TRIPOS>ATOM
      1 C1         -0.0187    1.5258    0.0104 C.3       1 <0>        -0.1455
      2 C2          0.0021   -0.0041    0.0020 C.3       1 <0>        -0.1164
      3 H1         -1.0205   -0.3814    0.0098 H         1 <0>         0.1237
      4 C3          0.7309   -0.5033    1.2229 C.2       1 <0>         0.5407
      5 O1          1.9109   -0.7754    1.1557 O.2       1 <0>        -0.5169
      6 N1          0.0715   -0.6474    2.3895 N.am      1 <0>        -0.5165
      7 N2          0.7491   -1.1115    3.5245 N.am      1 <0>        -0.5219
      8 C4          0.0897   -1.2556    4.6910 C.2       1 <0>         0.5184
      9 O2         -1.0903   -0.9835    4.7582 O.2       1 <0>        -0.5348
     10 C5          0.8186   -1.7548    5.9119 C.3       1 <0>        -0.1018
     11 C6          1.9628   -0.7970    6.2500 C.3       1 <0>        -0.1501
     12 C7         -0.1525   -1.8259    7.0921 C.3       1 <0>        -0.1347
     13 S1          0.8511   -0.5891   -1.4904 S.3       1 <0>         0.1142
     14 C8         -0.1893   -0.0568   -2.8091 C.2       1 <0>         0.2193
     15 N3          0.0346   -0.2704   -4.1101 N.2       1 <0>        -0.5191
     16 C9         -0.9389    0.2605   -4.8200 C.2       1 <0>         0.5629
     17 N4         -1.8145    0.8313   -3.9653 N.pl3     1 <0>        -0.5041
     18 N5         -1.3118    0.6084   -2.6733 N.2       1 <0>        -0.3198
     19 N6         -1.0456    0.2378   -6.1983 N.pl3     1 <0>        -0.5487
     20 N7         -0.0589   -0.3933   -6.9670 N.2       1 <0>        -0.2060
     21 C10        -0.1591   -0.4146   -8.2612 C.2       1 <0>         0.1394
     22 C11        -1.3367    0.2396   -8.9366 C.3       1 <0>        -0.1569
     23 C12         0.8792   -1.0788   -9.0701 C.ar      1 <0>        -0.0470
     24 C13         0.7761   -1.0978  -10.4633 C.ar      1 <0>        -0.0864
     25 C14         1.7484   -1.7197  -11.2180 C.ar      1 <0>        -0.1781
     26 C15         2.8298   -2.3277  -10.5974 C.ar      1 <0>         0.1179
     27 C16         2.9390   -2.3131   -9.2087 C.ar      1 <0>         0.0974
     28 C17         1.9717   -1.6859   -8.4456 C.ar      1 <0>        -0.1322
     29 O3          4.0002   -2.9111   -8.6039 O.3       1 <0>        -0.3053
     30 C18         4.0481   -2.8578   -7.1767 C.3       1 <0>         0.0239
     31 O4          3.7853   -2.9398  -11.3462 O.3       1 <0>        -0.3032
     32 C19         3.6110   -2.9178  -12.7644 C.3       1 <0>         0.0240
     33 H2          1.0039    1.9031    0.0027 H         1 <0>         0.0775
     34 H3         -0.5459    1.8868   -0.8726 H         1 <0>         0.0865
     35 H4         -0.5289    1.8773    0.9072 H         1 <0>         0.0728
     36 H5         -0.8722   -0.4298    2.4432 H         1 <0>         0.4344
     37 H6          1.6929   -1.3291    3.4707 H         1 <0>         0.4337
     38 H7          1.2224   -2.7475    5.7134 H         1 <0>         0.1058
     39 H8          2.6546   -0.7463    5.4092 H         1 <0>         0.0619
     40 H9          1.5589    0.1958    6.4486 H         1 <0>         0.0642
     41 H10         2.4900   -1.1581    7.1331 H         1 <0>         0.0755
     42 H11        -0.9677   -2.5083    6.8513 H         1 <0>         0.0645
     43 H12         0.3746   -2.1870    7.9752 H         1 <0>         0.0684
     44 H13        -0.5564   -0.8332    7.2907 H         1 <0>         0.0646
     45 H14        -1.8036    0.6589   -6.6331 H         1 <0>         0.4003
     46 H15        -1.0984    1.2807   -9.1544 H         1 <0>         0.0901
     47 H16        -1.5596   -0.2842   -9.8662 H         1 <0>         0.0934
     48 H17        -2.2040    0.1956   -8.2779 H         1 <0>         0.0673
     49 H18        -0.0652   -0.6258  -10.9491 H         1 <0>         0.1351
     50 H19         1.6676   -1.7337  -12.2949 H         1 <0>         0.1413
     51 H20         2.0577   -1.6698   -7.3692 H         1 <0>         0.1515
     52 H21         3.1640   -3.3444   -6.7650 H         1 <0>         0.0583
     53 H22         4.9428   -3.3709   -6.8238 H         1 <0>         0.1026
     54 H23         4.0743   -1.8174   -6.8526 H         1 <0>         0.0586
     55 H24         2.6747   -3.4124  -13.0231 H         1 <0>         0.0569
     56 H25         3.5842   -1.8848  -13.1112 H         1 <0>         0.0569
     57 H26         4.4411   -3.4395  -13.2406 H         1 <0>         0.1024
     58 H27        -2.6314    1.2999   -4.1978 H         1 <0>         0.4389
@<TRIPOS>BOND
     1    1    2 1
     2    1   33 1
     3    1   34 1
     4    1   35 1
     5    2    3 1
     6    2    4 1
     7    2   13 1
     8    4    5 2
     9    4    6 am
    10    6    7 1
    11    6   36 1
    12    7    8 am
    13    7   37 1
    14    8    9 2
    15    8   10 1
    16   10   11 1
    17   10   12 1
    18   10   38 1
    19   11   39 1
    20   11   40 1
    21   11   41 1
    22   12   42 1
    23   12   43 1
    24   12   44 1
    25   13   14 1
    26   14   18 2
    27   14   15 1
    28   15   16 2
    29   16   17 1
    30   16   19 1
    31   17   18 1
    32   17   58 1
    33   19   20 1
    34   19   45 1
    35   20   21 2
    36   21   22 1
    37   21   23 1
    38   22   46 1
    39   22   47 1
    40   22   48 1
    41   23   28 ar
    42   23   24 ar
    43   24   25 ar
    44   24   49 1
    45   25   26 ar
    46   25   50 1
    47   26   27 ar
    48   26   31 1
    49   27   28 ar
    50   27   29 1
    51   28   51 1
    52   29   30 1
    53   30   52 1
    54   30   53 1
    55   30   54 1
    56   31   32 1
    57   32   55 1
    58   32   56 1
    59   32   57 1
