@<TRIPOS>MOLECULE
ZINC64057157
   45    48     0     0     0
SMALL
USER_CHARGES

@<TRIPOS>ATOM
      1 C1         -0.0278    1.4971   -0.0085 C.3       1 <0>        -0.1674
      2 C2         -0.0087   -0.0327   -0.0013 C.3       1 <0>        -0.1242
      3 H1         -1.0316   -0.4088    0.0143 H         1 <0>         0.1230
      4 C3          0.6913   -0.5321   -1.2390 C.2       1 <0>         0.4101
      5 O1          1.8737   -0.8059   -1.1991 O.2       1 <0>        -0.3621
      6 C4         -0.0272   -0.6815   -2.4441 C.2       1 <0>        -0.0400
      7 C5          0.4602   -1.1295   -3.6587 C.ar      1 <0>        -0.0656
      8 C6          1.7402   -1.5577   -4.0830 C.ar      1 <0>        -0.0560
      9 C7          1.9380   -1.9514   -5.3610 C.ar      1 <0>        -0.1112
     10 C8          0.9085   -1.9572   -6.3158 C.ar      1 <0>         0.0329
     11 C9         -0.3488   -1.5672   -6.0137 C.ar      1 <0>        -0.1846
     12 C10        -0.6502   -1.1234   -4.6426 C.ar      1 <0>         0.3184
     13 N1         -1.7505   -0.7033   -4.0866 N.pl3     1 <0>        -0.5444
     14 C11        -1.4937   -0.3915   -2.6771 C.3       1 <0>         0.0658
     15 S1          0.8739   -0.6195    1.4709 S.3       1 <0>        -0.1328
     16 C12        -0.1650   -0.0710    2.8530 C.3       1 <0>         0.1954
     17 H2          0.2580   -0.3782    3.8095 H         1 <0>         0.1578
     18 N2         -0.3923    1.3912    2.8091 N.pl3     1 <0>        -0.6057
     19 N3         -1.7053    1.7766    2.6558 N.2       1 <0>        -0.3024
     20 C13        -2.6874    0.9353    2.5553 C.2       1 <0>         0.3494
     21 S2         -1.8972   -0.6639    2.6654 S.3       1 <0>        -0.1655
     22 N4         -4.0398    1.2128    2.3989 N.pl3     1 <0>        -0.6153
     23 C14        -4.4922    2.5339    2.4486 C.ar      1 <0>         0.1606
     24 C15        -5.6736    2.8898    1.8101 C.ar      1 <0>        -0.1548
     25 C16        -6.1181    4.1963    1.8617 C.ar      1 <0>        -0.0906
     26 C17        -5.3884    5.1500    2.5476 C.ar      1 <0>        -0.1387
     27 C18        -4.2119    4.7992    3.1843 C.ar      1 <0>        -0.0889
     28 C19        -3.7646    3.4934    3.1416 C.ar      1 <0>        -0.1406
     29 H3          0.9951    1.8732   -0.0241 H         1 <0>         0.0808
     30 H4         -0.5581    1.8497   -0.8931 H         1 <0>         0.0626
     31 H5         -0.5341    1.8583    0.8867 H         1 <0>         0.1111
     32 H6          2.5627   -1.5697   -3.3832 H         1 <0>         0.1686
     33 H7          2.9249   -2.2733   -5.6589 H         1 <0>         0.1620
     34 H8          1.1286   -2.2829   -7.3217 H         1 <0>         0.1696
     35 H9         -1.1222   -1.5807   -6.7674 H         1 <0>         0.1714
     36 H10        -2.1076   -1.0215   -2.0335 H         1 <0>         0.1854
     37 H11        -1.7035    0.6605   -2.4835 H         1 <0>         0.1835
     38 H12         0.3321    2.0321    2.8833 H         1 <0>         0.4467
     39 H13        -4.6699    0.4895    2.2551 H         1 <0>         0.4293
     40 H14        -6.2436    2.1456    1.2737 H         1 <0>         0.1247
     41 H15        -7.0364    4.4736    1.3655 H         1 <0>         0.1284
     42 H16        -5.7379    6.1712    2.5857 H         1 <0>         0.1257
     43 H17        -3.6443    5.5466    3.7187 H         1 <0>         0.1269
     44 H18        -2.8481    3.2192    3.6428 H         1 <0>         0.1394
     45 H19        -2.6066   -0.6144   -4.5340 H         1 <0>         0.4611
@<TRIPOS>BOND
     1    1    2 1
     2    1   29 1
     3    1   30 1
     4    1   31 1
     5    2    3 1
     6    2    4 1
     7    2   15 1
     8    4    5 2
     9    4    6 1
    10    6   14 1
    11    6    7 2
    12    7   12 ar
    13    7    8 ar
    14    8    9 ar
    15    8   32 1
    16    9   10 ar
    17    9   33 1
    18   10   11 ar
    19   10   34 1
    20   11   12 ar
    21   11   35 1
    22   12   13 2
    23   13   14 1
    24   13   45 1
    25   14   36 1
    26   14   37 1
    27   15   16 1
    28   16   17 1
    29   16   21 1
    30   16   18 1
    31   18   19 1
    32   18   38 1
    33   19   20 2
    34   20   21 1
    35   20   22 1
    36   22   23 1
    37   22   39 1
    38   23   28 ar
    39   23   24 ar
    40   24   25 ar
    41   24   40 1
    42   25   26 ar
    43   25   41 1
    44   26   27 ar
    45   26   42 1
    46   27   28 ar
    47   27   43 1
    48   28   44 1
