@<TRIPOS>MOLECULE
ZINC39617372
   60    64     0     0     0
SMALL
USER_CHARGES

@<TRIPOS>ATOM
      1 C1         -0.0163    1.3538    0.0095 C.ar      1 <0>        -0.1507
      2 C2          1.1633    2.1011    0.0022 C.ar      1 <0>         0.0475
      3 C3          2.3839    1.5110   -0.0126 C.ar      1 <0>        -0.2054
      4 C4          2.4831    0.0957   -0.0212 C.ar      1 <0>         0.3141
      5 N1          3.5307   -0.7052   -0.0355 N.pl3     1 <0>        -0.6019
      6 C5          3.0748   -2.0985   -0.0387 C.3       1 <0>         0.0762
      7 C6          1.5631   -2.0438   -0.0239 C.2       1 <0>         0.1339
      8 C7          1.2367   -0.6872   -0.0135 C.ar      1 <0>        -0.1447
      9 C8          0.0021   -0.0041    0.0020 C.ar      1 <0>        -0.0096
     10 C9          0.6748   -3.1301   -0.0217 C.2       1 <0>         0.2517
     11 N2         -0.6271   -3.0173   -0.0147 N.2       1 <0>        -0.1708
     12 N3         -1.2463   -4.2727   -0.0143 N.pl3     1 <0>        -0.5831
     13 C10        -0.1653   -5.2721   -0.0220 C.3       1 <0>         0.3632
     14 H1         -0.2228   -5.8890   -0.9188 H         1 <0>         0.1320
     15 N4          1.0695   -4.4706   -0.0327 N.pl3     1 <0>        -0.6316
     16 C11         2.4434   -4.9789   -0.0489 C.3       1 <0>         0.1303
     17 C12         2.9356   -5.1641    1.3879 C.3       1 <0>         0.0413
     18 H2          2.8163   -4.2333    1.9424 H         1 <0>         0.0668
     19 C13         4.4212   -5.5838    1.3826 C.3       1 <0>        -0.1489
     20 C14         4.4721   -6.6307    2.5286 C.3       1 <0>        -0.1547
     21 C15         3.0734   -7.2834    2.3930 C.3       1 <0>         0.0443
     22 O1          2.1912   -6.2085    2.0258 O.3       1 <0>        -0.3329
     23 S1         -0.2479   -6.3077    1.4650 S.3       1 <0>        -0.1058
     24 C16        -0.1066   -5.1242    2.8324 C.3       1 <0>        -0.1164
     25 C17        -0.1617   -5.8635    4.1444 C.2       1 <0>         0.5365
     26 O2         -0.2843   -7.0701    4.1559 O.2       1 <0>        -0.5041
     27 N5         -0.0748   -5.1839    5.3051 N.am      1 <0>        -0.7159
     28 C18        -0.1285   -5.9027    6.5805 C.3       1 <0>         0.1446
     29 H3          0.3522   -6.8753    6.4754 H         1 <0>         0.1164
     30 C19        -1.5931   -6.0908    7.0095 C.3       1 <0>        -0.1409
     31 C20        -1.6555   -6.5531    8.4852 C.3       1 <0>        -0.5740
     32 S2         -0.1212   -5.8330    9.1993 S.o2      1 <0>         2.3783
     33 O3         -0.4751   -4.7998   10.1085 O.2       1 <0>        -0.9271
     34 O4          0.7254   -6.8879    9.6348 O.2       1 <0>        -0.9238
     35 C21         0.5955   -5.0751    7.6807 C.3       1 <0>        -0.5990
     36 H4         -0.9660    1.8679    0.0259 H         1 <0>         0.1555
     37 H5          1.1016    3.1794    0.0083 H         1 <0>         0.1605
     38 H6          3.2781    2.1165   -0.0182 H         1 <0>         0.1602
     39 H7          3.4232   -2.6053   -0.9386 H         1 <0>         0.1721
     40 H8          3.4403   -2.6150    0.8489 H         1 <0>         0.1667
     41 H9         -0.9245   -0.5589    0.0083 H         1 <0>         0.1605
     42 H10        -2.2000   -4.4494   -0.0097 H         1 <0>         0.4664
     43 H11         2.4704   -5.9367   -0.5685 H         1 <0>         0.1080
     44 H12         3.0880   -4.2673   -0.5649 H         1 <0>         0.0873
     45 H13         4.6925   -6.0382    0.4297 H         1 <0>         0.0852
     46 H14         5.0654   -4.7332    1.6054 H         1 <0>         0.0807
     47 H15         5.2641   -7.3602    2.3594 H         1 <0>         0.0873
     48 H16         4.5873   -6.1464    3.4983 H         1 <0>         0.0767
     49 H17         3.0858   -8.0463    1.6146 H         1 <0>         0.0655
     50 H18         2.7645   -7.7171    3.3441 H         1 <0>         0.0858
     51 H19         0.8411   -4.5913    2.7552 H         1 <0>         0.1101
     52 H20        -0.9295   -4.4111    2.7823 H         1 <0>         0.0983
     53 H21         0.0232   -4.2189    5.2959 H         1 <0>         0.4042
     54 H22        -2.1254   -5.1456    6.9035 H         1 <0>         0.0897
     55 H23        -2.0624   -6.8424    6.3747 H         1 <0>         0.1033
     56 H24        -2.5387   -6.1489    8.9799 H         1 <0>         0.1477
     57 H25        -1.6386   -7.6410    8.5505 H         1 <0>         0.1454
     58 H26         1.6747   -5.2224    7.6386 H         1 <0>         0.1478
     59 H27         0.3410   -4.0176    7.6100 H         1 <0>         0.1444
     60 H28         4.4571   -0.4176   -0.0431 H         1 <0>         0.4546
@<TRIPOS>BOND
     1    1    9 ar
     2    1    2 ar
     3    1   36 1
     4    2    3 ar
     5    2   37 1
     6    3    4 ar
     7    3   38 1
     8    4    8 ar
     9    4    5 2
    10    5    6 1
    11    5   60 1
    12    6    7 1
    13    6   39 1
    14    6   40 1
    15    7    8 2
    16    7   10 1
    17    8    9 ar
    18    9   41 1
    19   10   15 1
    20   10   11 2
    21   11   12 1
    22   12   13 1
    23   12   42 1
    24   13   14 1
    25   13   15 1
    26   13   23 1
    27   15   16 1
    28   16   17 1
    29   16   43 1
    30   16   44 1
    31   17   18 1
    32   17   22 1
    33   17   19 1
    34   19   20 1
    35   19   45 1
    36   19   46 1
    37   20   21 1
    38   20   47 1
    39   20   48 1
    40   21   22 1
    41   21   49 1
    42   21   50 1
    43   23   24 1
    44   24   25 1
    45   24   51 1
    46   24   52 1
    47   25   26 2
    48   25   27 am
    49   27   28 1
    50   27   53 1
    51   28   29 1
    52   28   35 1
    53   28   30 1
    54   30   31 1
    55   30   54 1
    56   30   55 1
    57   31   32 1
    58   31   56 1
    59   31   57 1
    60   32   33 2
    61   32   34 2
    62   32   35 1
    63   35   58 1
    64   35   59 1
