@<TRIPOS>MOLECULE
ZINC11730259
   39    42     0     0     0
SMALL
USER_CHARGES
7-ethoxyspiro[chromeno[4,3-d]thiazole-4,1'-cyclopentane]-2-amine
@<TRIPOS>ATOM
      1 C1          3.4703    4.4819    7.9777 C.3       1 <0>        -0.1536
      2 C2          4.0897    4.0163    6.6584 C.3       1 <0>         0.0533
      3 O1          3.1271    3.2606    5.9207 O.3       1 <0>        -0.3115
      4 C3          3.5198    2.7699    4.7157 C.ar      1 <0>         0.1738
      5 C4          4.8084    3.0160    4.2605 C.ar      1 <0>        -0.2399
      6 C5          5.2090    2.5272    3.0307 C.ar      1 <0>        -0.0115
      7 C6          4.3177    1.7949    2.2648 C.ar      1 <0>        -0.1287
      8 C7          3.0206    1.5248    2.7219 C.ar      1 <0>         0.1867
      9 C8          2.6298    2.0292    3.9535 C.ar      1 <0>        -0.1826
     10 O2          2.1482    0.7822    1.9920 O.3       1 <0>        -0.2900
     11 C9          2.2324    0.7930    0.5682 C.3       1 <0>         0.2253
     12 C10         1.4541    1.9969   -0.0011 C.3       1 <0>        -0.1376
     13 C11        -0.0188    1.5349    0.0105 C.3       1 <0>        -0.1202
     14 C12         0.0021   -0.0041    0.0020 C.3       1 <0>        -0.1221
     15 C13         1.4870   -0.4255   -0.0150 C.3       1 <0>        -0.1099
     16 C14         3.6485    0.8136    0.1374 C.2       1 <0>        -0.2864
     17 C15         4.6940    1.2843    0.9082 C.2       1 <0>         0.1745
     18 N1          5.9123    1.2359    0.3698 N.2       1 <0>        -0.5707
     19 C16         6.1211    0.7580   -0.8452 C.2       1 <0>         0.3844
     20 S1          4.4618    0.3090   -1.3466 S.3       1 <0>         0.0490
     21 N2          7.3103    0.6365   -1.5456 N.pl3     1 <0>        -0.7933
     22 H1          3.1647    3.6139    8.5619 H         1 <0>         0.0674
     23 H2          4.2045    5.0583    8.5404 H         1 <0>         0.0799
     24 H3          2.6003    5.1051    7.7706 H         1 <0>         0.0673
     25 H4          4.9597    3.3931    6.8654 H         1 <0>         0.0649
     26 H5          4.3953    4.8843    6.0742 H         1 <0>         0.0648
     27 H6          5.4962    3.5876    4.8658 H         1 <0>         0.1347
     28 H7          6.2097    2.7147    2.6704 H         1 <0>         0.1379
     29 H8          1.6305    1.8445    4.3192 H         1 <0>         0.1443
     30 H9          1.7780    2.2136   -1.0191 H         1 <0>         0.0821
     31 H10         1.5846    2.8715    0.6362 H         1 <0>         0.0754
     32 H11        -0.5334    1.9061   -0.8758 H         1 <0>         0.0688
     33 H12        -0.5163    1.8965    0.9104 H         1 <0>         0.0702
     34 H13        -0.4849   -0.3889    0.8980 H         1 <0>         0.0723
     35 H14        -0.5027   -0.3793   -0.8882 H         1 <0>         0.0699
     36 H15         1.6416   -1.3035    0.6122 H         1 <0>         0.0843
     37 H16         1.8162   -0.6217   -1.0354 H         1 <0>         0.0853
     38 H17         7.3100    0.2622   -2.4405 H         1 <0>         0.4230
     39 H18         8.1432    0.9258   -1.1412 H         1 <0>         0.4189
@<TRIPOS>BOND
     1    1    2 1
     2    1   22 1
     3    1   23 1
     4    1   24 1
     5    2    3 1
     6    2   25 1
     7    2   26 1
     8    3    4 1
     9    4    9 ar
    10    4    5 ar
    11    5    6 ar
    12    5   27 1
    13    6    7 ar
    14    6   28 1
    15    7   17 1
    16    7    8 ar
    17    8    9 ar
    18    8   10 1
    19    9   29 1
    20   10   11 1
    21   11   15 1
    22   11   12 1
    23   11   16 1
    24   12   13 1
    25   12   30 1
    26   12   31 1
    27   13   14 1
    28   13   32 1
    29   13   33 1
    30   14   15 1
    31   14   34 1
    32   14   35 1
    33   15   36 1
    34   15   37 1
    35   16   20 1
    36   16   17 2
    37   17   18 1
    38   18   19 2
    39   19   20 1
    40   19   21 1
    41   21   38 1
    42   21   39 1
