@<TRIPOS>MOLECULE
ZINC09233392
   63    68     0     0     0
SMALL
USER_CHARGES
(5-methoxy-2-methyl-4-nitro-phenyl)-dimethyl-BLAHtrione
@<TRIPOS>ATOM
      1 C1          1.2281    5.9406   -3.1563 C.3       1 <0>        -0.1208
      2 C2          1.5729    5.2497   -1.8622 C.ar      1 <0>        -0.0749
      3 C3          2.1924    5.9526   -0.8448 C.ar      1 <0>        -0.0495
      4 C4          2.5109    5.3252    0.3415 C.ar      1 <0>        -0.0755
      5 C5          2.2101    3.9774    0.5243 C.ar      1 <0>         0.1596
      6 C6          1.5866    3.2804   -0.5061 C.ar      1 <0>        -0.1931
      7 C7          1.2709    3.9106   -1.6891 C.ar      1 <0>        -0.0409
      8 C8          1.4031    1.8766   -0.0013 C.3       1 <0>         0.0934
      9 C9          2.1331    0.8606   -0.8631 C.3       1 <0>        -0.1162
     10 H1          3.1401    0.6347   -0.5126 H         1 <0>         0.1844
     11 C10         1.2073   -0.3865   -0.8766 C.3       1 <0>        -0.1303
     12 H2          1.7034   -1.2939   -0.5324 H         1 <0>         0.1895
     13 C11         0.0021   -0.0041    0.0020 C.3       1 <0>         0.0401
     14 H3          0.0829   -0.4180    1.0071 H         1 <0>         0.1876
     15 C12        -0.6508    1.8640   -1.2772 C.3       1 <0>        -0.0330
     16 C13        -1.7492    0.8074   -1.5111 C.3       1 <0>        -0.1492
     17 C14        -1.3103   -0.4190   -0.6874 C.3       1 <0>        -0.1663
     18 C15         0.7668   -0.4783   -2.3202 C.2       1 <0>         0.5256
     19 O1          0.0245   -1.3226   -2.7737 O.2       1 <0>        -0.4139
     20 N1          1.3240    0.5175   -3.0190 N.am      1 <0>        -0.5332
     21 C16         2.1097    1.3282   -2.3009 C.2       1 <0>         0.5145
     22 O2          2.7092    2.2882   -2.7352 O.2       1 <0>        -0.3968
     23 C17         1.1021    0.6970   -4.3916 C.ar      1 <0>         0.1819
     24 C18         0.0476    1.4866   -4.8273 C.ar      1 <0>        -0.2011
     25 C19        -0.1688    1.6618   -6.1850 C.ar      1 <0>         0.2074
     26 C20         0.6693    1.0476   -7.1053 C.ar      1 <0>        -0.0539
     27 C21         1.7185    0.2615   -6.6694 C.ar      1 <0>        -0.0014
     28 C22         1.9408    0.0896   -5.3165 C.ar      1 <0>        -0.0929
     29 C23         3.0902   -0.7631   -4.8445 C.3       1 <0>        -0.1173
     30 N2          0.4384    1.2347   -8.5554 N.pl3     1 <0>         0.0259
     31 O3          1.1734    0.6960   -9.3636 O.2       1 <0>        -0.1563
     32 O4         -0.4866    1.9272   -8.9405 O.3       1 <0>        -0.1181
     33 O5         -1.2010    2.4341   -6.6150 O.3       1 <0>        -0.2675
     34 C24        -2.0231    3.0350   -5.6124 C.3       1 <0>         0.0146
     35 C25         1.9820    1.8833    1.3877 C.2       1 <0>         0.5363
     36 O6          2.0371    0.9444    2.1535 O.2       1 <0>        -0.4416
     37 N3          2.4272    3.1337    1.6157 N.am      1 <0>        -0.6341
     38 C26         3.1860    6.1003    1.4436 C.3       1 <0>        -0.1266
     39 H4          2.0637    5.8502   -3.8503 H         1 <0>         0.0840
     40 H5          0.3428    5.4766   -3.5912 H         1 <0>         0.0677
     41 H6          1.0282    6.9946   -2.9635 H         1 <0>         0.0813
     42 H7          2.4282    6.9979   -0.9801 H         1 <0>         0.1500
     43 H8          0.7878    3.3592   -2.4822 H         1 <0>         0.1223
     44 H9         -1.0917    2.8584   -1.2070 H         1 <0>         0.1579
     45 H10         0.0830    1.8311   -2.0825 H         1 <0>         0.1151
     46 H11        -1.8085    0.5512   -2.5689 H         1 <0>         0.1118
     47 H12        -2.7121    1.1759   -1.1573 H         1 <0>         0.1184
     48 H13        -1.1381   -1.2720   -1.3438 H         1 <0>         0.1453
     49 H14        -2.0667   -0.6643    0.0581 H         1 <0>         0.1202
     50 H15        -0.6037    1.9634   -4.1098 H         1 <0>         0.1485
     51 H16         2.3691   -0.2157   -7.3874 H         1 <0>         0.1766
     52 H17         2.7576   -1.7959   -4.7404 H         1 <0>         0.0883
     53 H18         3.9013   -0.7140   -5.5711 H         1 <0>         0.0916
     54 H19         3.4431   -0.3961   -3.8808 H         1 <0>         0.0631
     55 H20        -1.4136    3.6842   -4.9838 H         1 <0>         0.0607
     56 H21        -2.8070    3.6231   -6.0898 H         1 <0>         0.1236
     57 H22        -2.4759    2.2561   -4.9989 H         1 <0>         0.0621
     58 H23         2.8494    3.4157    2.4423 H         1 <0>         0.4379
     59 H24         4.2675    6.0303    1.3271 H         1 <0>         0.0855
     60 H25         2.8819    7.1458    1.3914 H         1 <0>         0.0857
     61 H26         2.8969    5.6856    2.4092 H         1 <0>         0.0685
     62 N4          0.0036    1.4409   -0.0217 N.4       1 <0>        -0.3658
     63 H27        -0.5000    1.8218    0.7879 H         1 <0>         0.4433
@<TRIPOS>BOND
     1    1    2 1
     2    1   39 1
     3    1   40 1
     4    1   41 1
     5    2    7 ar
     6    2    3 ar
     7    3    4 ar
     8    3   42 1
     9    4    5 ar
    10    4   38 1
    11    5   37 1
    12    5    6 ar
    13    6    7 ar
    14    6    8 1
    15    7   43 1
    16    8    9 1
    17    8   35 1
    18    8   62 1
    19    9   10 1
    20    9   21 1
    21    9   11 1
    22   11   12 1
    23   11   13 1
    24   11   18 1
    25   13   14 1
    26   13   17 1
    27   13   62 1
    28   15   16 1
    29   15   44 1
    30   15   45 1
    31   15   62 1
    32   16   17 1
    33   16   46 1
    34   16   47 1
    35   17   48 1
    36   17   49 1
    37   18   19 2
    38   18   20 am
    39   20   21 am
    40   20   23 1
    41   21   22 2
    42   23   28 ar
    43   23   24 ar
    44   24   25 ar
    45   24   50 1
    46   25   26 ar
    47   25   33 1
    48   26   27 ar
    49   26   30 1
    50   27   28 ar
    51   27   51 1
    52   28   29 1
    53   29   52 1
    54   29   53 1
    55   29   54 1
    56   30   31 2
    57   30   32 1
    58   33   34 1
    59   34   55 1
    60   34   56 1
    61   34   57 1
    62   35   36 2
    63   35   37 am
    64   37   58 1
    65   38   59 1
    66   38   60 1
    67   38   61 1
    68   62   63 1
