@<TRIPOS>MOLECULE
ZINC45244662
   46    47     0     0     0
SMALL
USER_CHARGES

@<TRIPOS>ATOM
      1 C1         -1.5343    0.1587   -1.0577 C.3       1 <0>        -0.1234
      2 C2         -1.0421   -1.2108   -0.6664 C.ar      1 <0>        -0.0398
      3 C3         -0.7516   -2.1442   -1.6460 C.ar      1 <0>        -0.1427
      4 C4         -0.3011   -3.3996   -1.2949 C.ar      1 <0>        -0.0485
      5 C5         -0.1379   -3.7277    0.0527 C.ar      1 <0>        -0.1420
      6 C6         -0.4323   -2.7811    1.0357 C.ar      1 <0>        -0.0095
      7 C7         -0.8772   -1.5273    0.6702 C.ar      1 <0>        -0.1389
      8 C8         -0.2597   -3.1264    2.4924 C.3       1 <0>        -0.1262
      9 C9          0.3438   -5.0706    0.4363 C.2       1 <0>         0.5141
     10 O1          0.5901   -5.3180    1.5997 O.2       1 <0>        -0.4972
     11 O2          0.5098   -6.0206   -0.5042 O.3       1 <0>        -0.3255
     12 C10         0.9785   -7.2962   -0.0621 C.3       1 <0>         0.0519
     13 C11         1.1024   -8.2230   -1.2439 C.2       1 <0>         0.5159
     14 O3          0.8173   -7.8299   -2.3554 O.2       1 <0>        -0.4860
     15 N1          1.5299   -9.4887   -1.0658 N.am      1 <0>        -0.6695
     16 C12         1.7426  -10.3180   -2.1733 C.ar      1 <0>         0.1391
     17 C13         2.1929   -9.7754   -3.3678 C.ar      1 <0>        -0.0362
     18 C14         2.4061  -10.5995   -4.4741 C.ar      1 <0>        -0.1223
     19 C15         2.1660  -11.9686   -4.3775 C.ar      1 <0>        -0.0674
     20 C16         1.7137  -12.5103   -3.1762 C.ar      1 <0>        -0.1229
     21 C17         1.5080  -11.6814   -2.0721 C.ar      1 <0>        -0.0574
     22 C18         1.4570  -13.9627   -3.0693 C.2       1 <0>         0.5668
     23 O4          1.0625  -14.4347   -2.0209 O.2       1 <0>        -0.5321
     24 N2          1.6606  -14.7632   -4.1343 N.am      1 <0>        -0.8483
     25 C19         2.8857  -10.0201   -5.7472 C.2       1 <0>         0.5643
     26 O5          3.0945   -8.8256   -5.8308 O.2       1 <0>        -0.5256
     27 N3          3.0912  -10.8165   -6.8149 N.am      1 <0>        -0.8493
     28 H1         -0.6831    0.8262   -1.1918 H         1 <0>         0.0783
     29 H2         -2.0934    0.0909   -1.9909 H         1 <0>         0.0725
     30 H3         -2.1825    0.5496   -0.2734 H         1 <0>         0.0717
     31 H4         -0.8783   -1.8891   -2.6877 H         1 <0>         0.1328
     32 H5         -0.0755   -4.1274   -2.0603 H         1 <0>         0.1418
     33 H6         -1.1012   -0.7927    1.4295 H         1 <0>         0.1334
     34 H7          0.7818   -2.9812    2.7793 H         1 <0>         0.0792
     35 H8         -0.8965   -2.4804    3.0968 H         1 <0>         0.0641
     36 H9         -0.5396   -4.1672    2.6548 H         1 <0>         0.0925
     37 H10         1.9528   -7.1806    0.4127 H         1 <0>         0.1080
     38 H11         0.2721   -7.7142    0.6550 H         1 <0>         0.1068
     39 H12         1.6902   -9.8250   -0.1702 H         1 <0>         0.4192
     40 H13         2.3785   -8.7141   -3.4421 H         1 <0>         0.1574
     41 H14         2.3297  -12.6083   -5.2321 H         1 <0>         0.1325
     42 H15         1.1620  -12.1014   -1.1393 H         1 <0>         0.1497
     43 H16         1.9755  -14.3866   -4.9709 H         1 <0>         0.4003
     44 H17         1.4923  -15.7159   -4.0642 H         1 <0>         0.4098
     45 H18         2.9246  -11.7697   -6.7482 H         1 <0>         0.3993
     46 H19         3.4058  -10.4364   -7.6501 H         1 <0>         0.4095
@<TRIPOS>BOND
     1    1    2 1
     2    1   28 1
     3    1   29 1
     4    1   30 1
     5    2    7 ar
     6    2    3 ar
     7    3    4 ar
     8    3   31 1
     9    4    5 ar
    10    4   32 1
    11    5    6 ar
    12    5    9 1
    13    6    7 ar
    14    6    8 1
    15    7   33 1
    16    8   34 1
    17    8   35 1
    18    8   36 1
    19    9   10 2
    20    9   11 1
    21   11   12 1
    22   12   13 1
    23   12   37 1
    24   12   38 1
    25   13   14 2
    26   13   15 am
    27   15   16 1
    28   15   39 1
    29   16   21 ar
    30   16   17 ar
    31   17   18 ar
    32   17   40 1
    33   18   19 ar
    34   18   25 1
    35   19   20 ar
    36   19   41 1
    37   20   21 ar
    38   20   22 1
    39   21   42 1
    40   22   23 2
    41   22   24 am
    42   24   43 1
    43   24   44 1
    44   25   26 2
    45   25   27 am
    46   27   45 1
    47   27   46 1
