@<TRIPOS>MOLECULE
ZINC65583934
   49    50     0     0     0
SMALL
USER_CHARGES

@<TRIPOS>ATOM
      1 C1          0.2396    1.5676   -0.2098 C.3       1 <0>        -0.1527
      2 C2          0.2627    0.0383   -0.2501 C.3       1 <0>        -0.1251
      3 C3          0.8159   -0.4984    1.0716 C.3       1 <0>        -0.1122
      4 C4          0.8390   -2.0277    1.0314 C.3       1 <0>        -0.1371
      5 C5          1.3922   -2.5643    2.3531 C.3       1 <0>         0.1597
      6 C6          1.5301   -4.0626    2.2685 C.2       1 <0>         0.4960
      7 O1          0.6858   -4.7784    2.7643 O.2       1 <0>        -0.4744
      8 N1          2.5918   -4.6073    1.6418 N.am      1 <0>        -0.6782
      9 C7          2.7782   -5.9940    1.6581 C.ar      1 <0>         0.1470
     10 C8          3.3582   -6.6311    0.5687 C.ar      1 <0>        -0.1362
     11 C9          3.5408   -7.9997    0.5879 C.ar      1 <0>        -0.1029
     12 C10         3.1464   -8.7360    1.6902 C.ar      1 <0>        -0.1129
     13 C11         2.5684   -8.1049    2.7761 C.ar      1 <0>        -0.1031
     14 C12         2.3891   -6.7353    2.7658 C.ar      1 <0>        -0.0929
     15 C13         2.1397   -8.9112    3.9749 C.3       1 <0>         0.1619
     16 N2          3.2497   -8.9984    4.9270 N.am      1 <0>        -0.5720
     17 C14         4.1816   -9.9719    4.9163 C.2       1 <0>         0.5202
     18 O2          4.2566  -10.9053    4.1463 O.2       1 <0>        -0.4647
     19 C15         5.1168   -9.6566    6.0668 C.3       1 <0>         0.0616
     20 N3          4.5502   -8.4266    6.6465 N.am      1 <0>        -0.7301
     21 C16         3.4668   -8.1182    5.9110 C.2       1 <0>         0.6998
     22 O3          2.7622   -7.1501    6.1191 O.2       1 <0>        -0.5362
     23 N4          0.4753   -2.2191    3.4423 N.am      1 <0>        -0.7336
     24 C17        -0.7973   -2.6624    3.4180 C.2       1 <0>         0.7118
     25 O4         -1.1843   -3.3489    2.4920 O.2       1 <0>        -0.5648
     26 N5         -1.6408   -2.3448    4.4200 N.am      1 <0>        -0.8688
     27 H1          1.2522    1.9425   -0.0608 H         1 <0>         0.0535
     28 H2         -0.1545    1.9499   -1.1514 H         1 <0>         0.0542
     29 H3         -0.3953    1.8999    0.6115 H         1 <0>         0.0528
     30 H4         -0.7499   -0.3366   -0.3991 H         1 <0>         0.0620
     31 H5          0.8977   -0.2940   -1.0713 H         1 <0>         0.0616
     32 H6          1.8285   -0.1235    1.2206 H         1 <0>         0.0616
     33 H7          0.1809   -0.1661    1.8929 H         1 <0>         0.0634
     34 H8         -0.1736   -2.4025    0.8824 H         1 <0>         0.0982
     35 H9          1.4740   -2.3600    0.2101 H         1 <0>         0.0735
     36 H10         2.3686   -2.1198    2.5455 H         1 <0>         0.1116
     37 H11         3.2266   -4.0380    1.1794 H         1 <0>         0.4087
     38 H12         3.6657   -6.0567   -0.2927 H         1 <0>         0.1270
     39 H13         3.9917   -8.4957   -0.2589 H         1 <0>         0.1292
     40 H14         3.2900   -9.8064    1.7026 H         1 <0>         0.1278
     41 H15         1.9423   -6.2422    3.6165 H         1 <0>         0.1398
     42 H16         1.2882   -8.4268    4.4529 H         1 <0>         0.1068
     43 H17         1.8553   -9.9138    3.6556 H         1 <0>         0.1064
     44 H18         5.1100  -10.4641    6.7990 H         1 <0>         0.1254
     45 H19         6.1279   -9.4777    5.7011 H         1 <0>         0.1242
     46 H20         4.8931   -7.9336    7.4082 H         1 <0>         0.4419
     47 H21         0.7841   -1.6715    4.1810 H         1 <0>         0.4011
     48 H22        -1.3320   -1.7972    5.1587 H         1 <0>         0.3941
     49 H23        -2.5566   -2.6639    4.4025 H         1 <0>         0.4151
@<TRIPOS>BOND
     1    1    2 1
     2    1   27 1
     3    1   28 1
     4    1   29 1
     5    2    3 1
     6    2   30 1
     7    2   31 1
     8    3    4 1
     9    3   32 1
    10    3   33 1
    11    4    5 1
    12    4   34 1
    13    4   35 1
    14    5    6 1
    15    5   23 1
    16    5   36 1
    17    6    7 2
    18    6    8 am
    19    8    9 1
    20    8   37 1
    21    9   14 ar
    22    9   10 ar
    23   10   11 ar
    24   10   38 1
    25   11   12 ar
    26   11   39 1
    27   12   13 ar
    28   12   40 1
    29   13   14 ar
    30   13   15 1
    31   14   41 1
    32   15   16 1
    33   15   42 1
    34   15   43 1
    35   16   21 am
    36   16   17 am
    37   17   18 2
    38   17   19 1
    39   19   20 1
    40   19   44 1
    41   19   45 1
    42   20   21 am
    43   20   46 1
    44   21   22 2
    45   23   24 am
    46   23   47 1
    47   24   25 2
    48   24   26 am
    49   26   48 1
    50   26   49 1
