@<TRIPOS>MOLECULE
ZINC04223585
   45    47     0     0     0
SMALL
USER_CHARGES
methyl 4-methyl-8-[3-(5-nitro-2-thienyl)prop-2-enoylamino]-7-thia-4-azabicyclo[4.3.0]nona-8,10-diene-9-carboxylate
@<TRIPOS>ATOM
      1 C1         -8.2137    6.7913    0.2991 C.3       1 <0>        -0.0409
      2 C2         -5.9741    7.4233   -0.3714 C.3       1 <0>         0.0030
      3 C3         -4.5064    7.3548    0.0605 C.3       1 <0>        -0.0936
      4 C4         -4.0769    5.8923    0.0533 C.2       1 <0>        -0.0344
      5 C5         -5.0079    4.9118    0.0532 C.2       1 <0>        -0.3210
      6 S1         -4.0792    3.4067    0.0323 S.3       1 <0>         0.3447
      7 C6         -2.4765    4.0663    0.0359 C.2       1 <0>         0.1128
      8 C7         -2.6984    5.4389    0.0444 C.2       1 <0>        -0.2187
      9 C8         -1.5850    6.3894    0.0439 C.2       1 <0>         0.5199
     10 O1         -1.1275    6.7896   -1.0098 O.2       1 <0>        -0.4808
     11 O2         -1.0665    6.8214    1.2118 O.3       1 <0>        -0.3508
     12 C9          0.0359    7.7632    1.1353 C.3       1 <0>         0.0296
     13 N1         -1.2685    3.3906    0.0265 N.am      1 <0>        -0.6155
     14 C10        -1.2502    2.0430    0.0191 C.2       1 <0>         0.5608
     15 O3         -2.2966    1.4197    0.0207 O.2       1 <0>        -0.4968
     16 C11        -0.0163    1.3528    0.0095 C.2       1 <0>        -0.2223
     17 C12         0.0021   -0.0041    0.0020 C.2       1 <0>         0.0650
     18 C13         1.2374   -0.6951   -0.0135 C.2       1 <0>        -0.1429
     19 C14         1.4755   -2.0647   -0.0174 C.2       1 <0>        -0.1115
     20 C15         2.7866   -2.4690   -0.0373 C.2       1 <0>        -0.0706
     21 C16         3.7709   -1.5314   -0.0413 C.2       1 <0>        -0.1736
     22 S2          2.8951   -0.0355   -0.0252 S.3       1 <0>         0.2874
     23 N2          5.2368   -1.7380   -0.0559 N.pl3     1 <0>         0.0653
     24 O4          5.6926   -2.8675   -0.0657 O.2       1 <0>        -0.1230
     25 O5          5.9870   -0.7785   -0.0581 O.3       1 <0>        -0.1389
     26 C17        -6.4932    5.0968    0.0631 C.3       1 <0>         0.1095
     27 H1         -8.5083    6.6948   -0.7458 H         1 <0>         0.1256
     28 H2         -8.7878    6.0900    0.9047 H         1 <0>         0.1260
     29 H3         -8.4080    7.8085    0.6390 H         1 <0>         0.1258
     30 H4         -6.3448    8.4388   -0.2322 H         1 <0>         0.1395
     31 H5         -6.0544    7.1502   -1.4236 H         1 <0>         0.1354
     32 H6         -4.3989    7.7649    1.0647 H         1 <0>         0.1104
     33 H7         -3.8902    7.9226   -0.6367 H         1 <0>         0.1229
     34 H8         -0.2889    8.6609    0.6093 H         1 <0>         0.0687
     35 H9          0.3576    8.0286    2.1424 H         1 <0>         0.1105
     36 H10         0.8667    7.3072    0.5969 H         1 <0>         0.0689
     37 H11        -0.4351    3.8870    0.0252 H         1 <0>         0.4285
     38 H12         0.9115    1.9055    0.0036 H         1 <0>         0.1390
     39 H13        -0.9258   -0.5567    0.0079 H         1 <0>         0.1693
     40 H14         0.6649   -2.7783   -0.0084 H         1 <0>         0.1718
     41 H15         3.0339   -3.5203   -0.0452 H         1 <0>         0.1693
     42 H16        -6.9427    4.4233    0.7927 H         1 <0>         0.1435
     43 H17        -6.8963    4.8883   -0.9279 H         1 <0>         0.1455
     44 N3         -6.7730    6.4986    0.4589 N.4       1 <0>        -0.3968
     45 H18        -6.5140    6.6257    1.4443 H         1 <0>         0.4335
@<TRIPOS>BOND
     1    1   27 1
     2    1   28 1
     3    1   29 1
     4    1   44 1
     5    2    3 1
     6    2   30 1
     7    2   31 1
     8    2   44 1
     9    3    4 1
    10    3   32 1
    11    3   33 1
    12    4    8 1
    13    4    5 2
    14    5    6 1
    15    5   26 1
    16    6    7 1
    17    7    8 2
    18    7   13 1
    19    8    9 1
    20    9   10 2
    21    9   11 1
    22   11   12 1
    23   12   34 1
    24   12   35 1
    25   12   36 1
    26   13   14 am
    27   13   37 1
    28   14   15 2
    29   14   16 1
    30   16   17 2
    31   16   38 1
    32   17   18 1
    33   17   39 1
    34   18   22 1
    35   18   19 2
    36   19   20 1
    37   19   40 1
    38   20   21 2
    39   20   41 1
    40   21   22 1
    41   21   23 1
    42   23   24 2
    43   23   25 1
    44   26   42 1
    45   26   43 1
    46   26   44 1
    47   44   45 1
