@<TRIPOS>MOLECULE
ZINC01086810
   44    46     0     0     0
SMALL
USER_CHARGES
1-[(3-bromophenyl)methyl]-N-[(1,3-dimethylpyrazol-4-yl)methyleneamino]-4-nitro-pyrazole-3-carboxamide
@<TRIPOS>ATOM
      1 C1         -1.5732    4.4397    0.0394 C.3       1 <0>        -0.0785
      2 C2         -0.6919    3.2173    0.0246 C.2       1 <0>         0.1210
      3 C3         -1.1344    1.8768    0.0169 C.2       1 <0>        -0.2151
      4 C4         -0.0126    1.0758    0.0080 C.2       1 <0>         0.0956
      5 N1          1.0624    1.8884    0.0021 N.pl3     1 <0>        -0.3653
      6 N2          0.6137    3.2139    0.0126 N.2       1 <0>        -0.3014
      7 C5          2.4626    1.4575   -0.0121 C.3       1 <0>         0.0981
      8 C6         -2.5369    1.4182    0.0202 C.2       1 <0>         0.1631
      9 N3         -3.5027    2.2846    0.0284 N.2       1 <0>        -0.2373
     10 N4         -4.8343    1.8493    0.0315 N.am      1 <0>        -0.5724
     11 C7         -5.8375    2.7492    0.0400 C.2       1 <0>         0.6034
     12 O1         -5.5868    3.9393    0.0450 O.2       1 <0>        -0.4385
     13 C8         -7.2411    2.2903    0.0433 C.2       1 <0>         0.0569
     14 C9         -8.3950    3.1096    0.0577 C.2       1 <0>        -0.1128
     15 C10        -9.4451    2.2555    0.0529 C.2       1 <0>         0.0876
     16 N5         -8.9417    1.0025    0.0446 N.pl3     1 <0>        -0.2625
     17 N6         -7.6576    1.0396    0.0391 N.2       1 <0>        -0.2325
     18 C11        -9.7444   -0.2230    0.0427 C.3       1 <0>         0.1604
     19 C12        -9.3436   -1.0843   -1.1272 C.ar      1 <0>        -0.1229
     20 C13        -8.3359   -2.0200   -0.9834 C.ar      1 <0>        -0.0650
     21 C14        -7.9678   -2.8102   -2.0560 C.ar      1 <0>        -0.1141
     22 C15        -8.6074   -2.6656   -3.2730 C.ar      1 <0>        -0.0708
     23 C16        -9.6154   -1.7297   -3.4173 C.ar      1 <0>        -0.0948
     24 C17        -9.9871   -0.9426   -2.3420 C.ar      1 <0>        -0.0667
     25 Br1       -10.4903   -1.5310   -5.0819 Br        1 <0>        -0.0373
     26 N7         -8.4433    4.5889    0.0724 N.pl3     1 <0>         0.0508
     27 O2         -9.5175    5.1630    0.0840 O.2       1 <0>        -0.1825
     28 O3         -7.4090    5.2321    0.0730 O.3       1 <0>        -0.0833
     29 H1         -1.7955    4.7397   -0.9847 H         1 <0>         0.0794
     30 H2         -2.5027    4.2111    0.5609 H         1 <0>         0.1003
     31 H3         -1.0589    5.2522    0.5526 H         1 <0>         0.0694
     32 H4          0.0021   -0.0041    0.0020 H         1 <0>         0.1841
     33 H5          2.8008    1.3551   -1.0433 H         1 <0>         0.0794
     34 H6          3.0761    2.1990    0.4996 H         1 <0>         0.0933
     35 H7          2.5525    0.4978    0.4967 H         1 <0>         0.0909
     36 H8         -2.7595    0.3614    0.0157 H         1 <0>         0.1186
     37 H9         -5.0343    0.9001    0.0275 H         1 <0>         0.3877
     38 H10       -10.4908    2.5257    0.0588 H         1 <0>         0.2148
     39 H11        -9.5758   -0.7693    0.9707 H         1 <0>         0.1213
     40 H12       -10.8003    0.0345   -0.0406 H         1 <0>         0.1283
     41 H13        -7.8360   -2.1332   -0.0328 H         1 <0>         0.1358
     42 H14        -7.1807   -3.5410   -1.9432 H         1 <0>         0.1393
     43 H15        -8.3202   -3.2836   -4.1109 H         1 <0>         0.1385
     44 H16       -10.7771   -0.2147   -2.4530 H         1 <0>         0.1357
@<TRIPOS>BOND
     1    1    2 1
     2    1   29 1
     3    1   30 1
     4    1   31 1
     5    2    6 2
     6    2    3 1
     7    3    4 2
     8    3    8 1
     9    4    5 1
    10    4   32 1
    11    5    6 1
    12    5    7 1
    13    7   33 1
    14    7   34 1
    15    7   35 1
    16    8    9 2
    17    8   36 1
    18    9   10 1
    19   10   11 am
    20   10   37 1
    21   11   12 2
    22   11   13 1
    23   13   17 2
    24   13   14 1
    25   14   15 2
    26   14   26 1
    27   15   16 1
    28   15   38 1
    29   16   17 1
    30   16   18 1
    31   18   19 1
    32   18   39 1
    33   18   40 1
    34   19   24 ar
    35   19   20 ar
    36   20   21 ar
    37   20   41 1
    38   21   22 ar
    39   21   42 1
    40   22   23 ar
    41   22   43 1
    42   23   24 ar
    43   23   25 1
    44   24   44 1
    45   26   27 2
    46   26   28 1
