@<TRIPOS>MOLECULE
ZINC40757808
   43    45     0     0     0
SMALL
USER_CHARGES

@<TRIPOS>ATOM
      1 C1          1.2692    0.3782    0.6359 C.3       1 <0>         0.0978
      2 N1          0.0038    0.0030    0.0002 N.pl3     1 <0>        -0.5735
      3 C2         -1.2065    0.2484    0.6543 C.ar      1 <0>         0.2102
      4 C3         -2.3994   -0.2026    0.1035 C.ar      1 <0>        -0.1736
      5 C4         -3.5936    0.0413    0.7528 C.ar      1 <0>        -0.0764
      6 C5         -3.6029    0.7339    1.9497 C.ar      1 <0>        -0.1672
      7 C6         -2.4171    1.1843    2.5008 C.ar      1 <0>        -0.0765
      8 C7         -1.2188    0.9389    1.8597 C.ar      1 <0>        -0.1847
      9 C8          0.0070   -0.5973   -1.2541 C.ar      1 <0>         0.3539
     10 C9          0.0516    0.1809   -2.4123 C.ar      1 <0>         0.0847
     11 C10         0.0532   -0.4727   -3.6459 C.ar      1 <0>         0.3888
     12 N2          0.0125   -1.8028   -3.6707 N.ar      1 <0>        -0.5485
     13 C11        -0.0290   -2.5001   -2.5535 C.ar      1 <0>         0.2999
     14 N3         -0.0269   -1.9228   -1.3690 N.ar      1 <0>        -0.5175
     15 N4          0.0963    0.2543   -4.8296 N.pl3     1 <0>        -0.5085
     16 N5          0.0975   -0.4128   -6.0616 N.am      1 <0>        -0.5053
     17 C12         0.1392    0.2922   -7.2095 C.2       1 <0>         0.5481
     18 O1          0.1759    1.5068   -7.1759 O.2       1 <0>        -0.5089
     19 C13         0.1405   -0.4114   -8.5092 C.ar      1 <0>        -0.1072
     20 C14         0.0926   -1.8061   -8.5516 C.ar      1 <0>        -0.0795
     21 C15         0.0936   -2.4565   -9.7677 C.ar      1 <0>        -0.1104
     22 C16         0.1419   -1.7303  -10.9450 C.ar      1 <0>        -0.0827
     23 C17         0.1899   -0.3487  -10.9113 C.ar      1 <0>        -0.0986
     24 C18         0.1837    0.3160   -9.7007 C.ar      1 <0>        -0.0402
     25 Br1         0.2414    2.2056   -9.6563 Br        1 <0>        -0.0057
     26 N6          0.0933    1.5825   -2.3385 N.pl3     1 <0>        -0.8601
     27 H1          1.5870   -0.4172    1.3101 H         1 <0>         0.0580
     28 H2          2.0296    0.5305   -0.1302 H         1 <0>         0.0689
     29 H3          1.1327    1.3003    1.2007 H         1 <0>         0.0762
     30 H4         -2.3930   -0.7429   -0.8315 H         1 <0>         0.1127
     31 H5         -4.5214   -0.3090    0.3252 H         1 <0>         0.1209
     32 H6         -4.5382    0.9239    2.4551 H         1 <0>         0.1201
     33 H7         -2.4279    1.7249    3.4357 H         1 <0>         0.1236
     34 H8         -0.2928    1.2870    2.2928 H         1 <0>         0.1251
     35 H9         -0.0614   -3.5781   -2.6103 H         1 <0>         0.2012
     36 H10         0.1255    1.2234   -4.8027 H         1 <0>         0.4393
     37 H11         0.0682   -1.3819   -6.0884 H         1 <0>         0.4313
     38 H12         0.0553   -2.3744   -7.6340 H         1 <0>         0.1361
     39 H13         0.0570   -3.5354   -9.8014 H         1 <0>         0.1400
     40 H14         0.1424   -2.2451  -11.8944 H         1 <0>         0.1402
     41 H15         0.2278    0.2118  -11.8337 H         1 <0>         0.1427
     42 H16         0.0177    2.0254   -1.4788 H         1 <0>         0.4079
     43 H17         0.1977    2.1079   -3.1472 H         1 <0>         0.3972
@<TRIPOS>BOND
     1    1    2 1
     2    1   27 1
     3    1   28 1
     4    1   29 1
     5    2    3 1
     6    2    9 1
     7    3    8 ar
     8    3    4 ar
     9    4    5 ar
    10    4   30 1
    11    5    6 ar
    12    5   31 1
    13    6    7 ar
    14    6   32 1
    15    7    8 ar
    16    7   33 1
    17    8   34 1
    18    9   14 ar
    19    9   10 ar
    20   10   11 ar
    21   10   26 1
    22   11   12 ar
    23   11   15 1
    24   12   13 ar
    25   13   14 ar
    26   13   35 1
    27   15   16 1
    28   15   36 1
    29   16   17 am
    30   16   37 1
    31   17   18 2
    32   17   19 1
    33   19   24 ar
    34   19   20 ar
    35   20   21 ar
    36   20   38 1
    37   21   22 ar
    38   21   39 1
    39   22   23 ar
    40   22   40 1
    41   23   24 ar
    42   23   41 1
    43   24   25 1
    44   26   42 1
    45   26   43 1
