@<TRIPOS>MOLECULE
ZINC65835071
   38    38     0     0     0
SMALL
USER_CHARGES

@<TRIPOS>ATOM
      1 C1         -0.1733    0.9909    0.2281 C.3       1 <0>        -0.1554
      2 C2         -0.1156   -0.4745   -0.2081 C.3       1 <0>        -0.1397
      3 C3          0.6404   -0.5826   -1.5339 C.3       1 <0>         0.0865
      4 C4          0.5806   -2.0037   -2.0318 C.2       1 <0>         0.5111
      5 O1          1.5968   -2.6604   -2.1150 O.2       1 <0>        -0.5137
      6 N1         -0.6022   -2.5449   -2.3847 N.am      1 <0>        -0.5201
      7 N2         -0.6578   -3.8660   -2.8477 N.am      1 <0>        -0.5160
      8 C5         -1.8406   -4.4072   -3.2006 C.2       1 <0>         0.5635
      9 O2         -2.8592   -3.7490   -3.1172 O.2       1 <0>        -0.5209
     10 C6         -1.8993   -5.8008   -3.6889 C.ar      1 <0>        -0.1435
     11 C7         -0.7317   -6.5612   -3.7803 C.ar      1 <0>        -0.0168
     12 C8         -0.7927   -7.8608   -4.2367 C.ar      1 <0>        -0.1283
     13 C9         -2.0091   -8.4123   -4.6045 C.ar      1 <0>         0.0725
     14 C10        -3.1704   -7.6629   -4.5165 C.ar      1 <0>        -0.6784
     15 C11        -3.1229   -6.3641   -4.0551 C.ar      1 <0>         0.0588
     16 S1         -4.7127   -8.3727   -4.9878 S.o2      1 <0>         2.6999
     17 O3         -4.7938   -9.6348   -4.3399 O.2       1 <0>        -0.9400
     18 O4         -5.6957   -7.3617   -4.8121 O.2       1 <0>        -0.9515
     19 N3         -4.6343   -8.6793   -6.6132 N.pl3     1 <0>        -1.2447
     20 Cl1        -2.0779  -10.0491   -5.1787 Cl        1 <0>        -0.0188
     21 O5          2.0041   -0.2039   -1.3368 O.3       1 <0>        -0.3536
     22 C12         2.3126    1.1152   -1.7916 C.3       1 <0>         0.0226
     23 H1          0.8349    1.3468    0.4400 H         1 <0>         0.0639
     24 H2         -0.6100    1.5907   -0.5704 H         1 <0>         0.0575
     25 H3         -0.7859    1.0790    1.1253 H         1 <0>         0.0657
     26 H4          0.4000   -1.0601    0.5530 H         1 <0>         0.0828
     27 H5         -1.1288   -0.8558   -0.3355 H         1 <0>         0.0795
     28 H6          0.1820    0.0794   -2.2685 H         1 <0>         0.0974
     29 H7         -1.4150   -2.0197   -2.3182 H         1 <0>         0.4346
     30 H8          0.1550   -4.3912   -2.9142 H         1 <0>         0.4322
     31 H9          0.2173   -6.1320   -3.4945 H         1 <0>         0.1485
     32 H10         0.1097   -8.4499   -4.3078 H         1 <0>         0.1580
     33 H11        -4.0299   -5.7823   -3.9820 H         1 <0>         0.1725
     34 H12        -3.8293   -8.4630   -7.1093 H         1 <0>         0.4165
     35 H13        -5.3933   -9.0753   -7.0693 H         1 <0>         0.4255
     36 H14         2.0195    1.2171   -2.8365 H         1 <0>         0.0461
     37 H15         1.7696    1.8435   -1.1892 H         1 <0>         0.0517
     38 H16         3.3841    1.2912   -1.6960 H         1 <0>         0.0942
@<TRIPOS>BOND
     1    1    2 1
     2    1   23 1
     3    1   24 1
     4    1   25 1
     5    2    3 1
     6    2   26 1
     7    2   27 1
     8    3    4 1
     9    3   21 1
    10    3   28 1
    11    4    5 2
    12    4    6 am
    13    6    7 1
    14    6   29 1
    15    7    8 am
    16    7   30 1
    17    8    9 2
    18    8   10 1
    19   10   15 ar
    20   10   11 ar
    21   11   12 ar
    22   11   31 1
    23   12   13 ar
    24   12   32 1
    25   13   14 ar
    26   13   20 1
    27   14   15 ar
    28   14   16 1
    29   15   33 1
    30   16   17 2
    31   16   18 2
    32   16   19 1
    33   19   34 1
    34   19   35 1
    35   21   22 1
    36   22   36 1
    37   22   37 1
    38   22   38 1
