@<TRIPOS>MOLECULE
ZINC16720356
   34    36     0     0     0
SMALL
USER_CHARGES

@<TRIPOS>ATOM
      1 C1          0.2983    0.8322    2.0770 C.ar      1 <0>        -0.0607
      2 C2          1.4800    1.5593    2.0757 C.ar      1 <0>        -0.1452
      3 C3          2.5946    1.0901    1.4149 C.ar      1 <0>        -0.0278
      4 C4          2.5346   -0.1294    0.7395 C.ar      1 <0>        -0.1629
      5 C5          1.3316   -0.8657    0.7430 C.ar      1 <0>         0.0386
      6 C6          0.2176   -0.3759    1.4154 C.ar      1 <0>        -0.1744
      7 C7          1.2991   -2.1529    0.0186 C.2       1 <0>        -0.3046
      8 C8          0.1539   -2.9191   -0.0159 C.2       1 <0>         0.2710
      9 N1         -1.0633   -2.3270    0.1014 N.pl3     1 <0>        -0.6253
     10 C9         -2.2160   -3.1131    0.2131 C.ar      1 <0>         0.1208
     11 C10        -2.1152   -4.4983    0.2099 C.ar      1 <0>        -0.1130
     12 C11        -3.2518   -5.2737    0.3201 C.ar      1 <0>        -0.0529
     13 C12        -4.4977   -4.6695    0.4348 C.ar      1 <0>        -0.1269
     14 C13        -4.6006   -3.2842    0.4383 C.ar      1 <0>        -0.1162
     15 C14        -3.4626   -2.5070    0.3333 C.ar      1 <0>         0.0887
     16 F1         -3.5611   -1.1597    0.3416 F         1 <0>        -0.1272
     17 S1         -5.9477   -5.6607    0.5754 S.3       1 <0>         0.2251
     18 C15        -7.2692   -4.4757    0.6948 C.1       1 <0>         0.1514
     19 N2         -8.1130   -3.7189    0.7711 N.1       1 <0>        -0.3512
     20 C16         2.5220   -2.5912   -0.6634 C.2       1 <0>         0.5889
     21 O1          2.5286   -3.6472   -1.2693 O.2       1 <0>        -0.5185
     22 N3          3.6340   -1.8392   -0.6263 N.am      1 <0>        -0.6645
     23 C17         3.6988   -0.6651    0.0226 C.2       1 <0>         0.5716
     24 O2          4.7390   -0.0346    0.0156 O.2       1 <0>        -0.5021
     25 H1         -0.5642    1.2129    2.6039 H         1 <0>         0.1325
     26 H2          1.5267    2.5034    2.5981 H         1 <0>         0.1350
     27 H3          3.5098    1.6635    1.4194 H         1 <0>         0.1423
     28 H4         -0.7048   -0.9375    1.4201 H         1 <0>         0.1310
     29 H5          0.2241   -3.9901   -0.1362 H         1 <0>         0.1778
     30 H6         -1.1334   -1.3596    0.1077 H         1 <0>         0.4286
     31 H7         -1.1472   -4.9689    0.1208 H         1 <0>         0.1555
     32 H8         -3.1727   -6.3508    0.3168 H         1 <0>         0.1547
     33 H9         -5.5691   -2.8147    0.5271 H         1 <0>         0.1409
     34 H10         4.4252   -2.1581   -1.0881 H         1 <0>         0.4189
@<TRIPOS>BOND
     1    1    6 ar
     2    1    2 ar
     3    1   25 1
     4    2    3 ar
     5    2   26 1
     6    3    4 ar
     7    3   27 1
     8    4   23 1
     9    4    5 ar
    10    5    6 ar
    11    5    7 1
    12    6   28 1
    13    7    8 2
    14    7   20 1
    15    8    9 1
    16    8   29 1
    17    9   10 1
    18    9   30 1
    19   10   15 ar
    20   10   11 ar
    21   11   12 ar
    22   11   31 1
    23   12   13 ar
    24   12   32 1
    25   13   14 ar
    26   13   17 1
    27   14   15 ar
    28   14   33 1
    29   15   16 1
    30   17   18 1
    31   18   19 3
    32   20   21 2
    33   20   22 am
    34   22   23 am
    35   22   34 1
    36   23   24 2
