@<TRIPOS>MOLECULE
ZINC36206803
   70    72     0     0     0
SMALL
USER_CHARGES

@<TRIPOS>ATOM
      1 C1          0.0722    1.4220    0.0825 C.3       1 <0>        -0.1306
      2 C2          0.2685   -0.0709    0.0191 C.2       1 <0>         0.0290
      3 C3          0.0755   -0.7516   -1.1845 C.2       1 <0>        -0.2226
      4 C4         -0.3179   -0.2180   -2.5087 C.2       1 <0>         0.5636
      5 O1         -0.5240    0.9721   -2.6667 O.2       1 <0>        -0.4694
      6 N1         -0.4416   -1.0831   -3.5342 N.am      1 <0>        -0.6225
      7 H1         -0.6983   -0.7499   -4.4083 H         1 <0>         0.4307
      8 C5         -0.2143   -2.4095   -3.3699 C.2       1 <0>         0.3785
      9 N2          0.1338   -2.9125   -2.2168 N.2       1 <0>        -0.4970
     10 C6          0.2838   -2.1494   -1.1418 C.2       1 <0>         0.0746
     11 S1          0.7318   -2.4433    0.5505 S.3       1 <0>         0.2756
     12 C7          0.6409   -0.7601    1.1370 C.2       1 <0>        -0.2154
     13 C8          0.8988   -0.2463    2.4839 C.2       1 <0>         0.5507
     14 O2          0.7863    0.9429    2.7130 O.2       1 <0>        -0.4714
     15 O3          1.2611   -1.0920    3.4705 O.3       1 <0>        -0.3417
     16 C9          1.4968   -0.5221    4.7595 C.3       1 <0>         0.0815
     17 C10         0.1932   -0.5156    5.5604 C.3       1 <0>        -0.1745
     18 C11         2.5463   -1.3530    5.5004 C.3       1 <0>        -0.1517
     19 C12        -0.3685   -3.3301   -4.5530 C.3       1 <0>         0.0453
     20 N3         -0.0743   -4.7094   -4.1418 N.4       1 <0>        -0.3669
     21 C13        -0.1073   -5.5887   -5.3181 C.3       1 <0>        -0.0179
     22 C14         1.0329   -5.2141   -6.2671 C.3       1 <0>         0.0243
     23 N4          1.0009   -6.0946   -7.4425 N.3       1 <0>        -0.5275
     24 C15         1.3073   -7.4831   -7.0692 C.3       1 <0>         0.0070
     25 C16         1.2047   -8.3740   -8.3100 C.3       1 <0>         0.0608
     26 O4          2.0863   -7.8781   -9.3210 O.3       1 <0>        -0.3778
     27 C17         1.8159   -6.5284   -9.7091 C.3       1 <0>         0.0605
     28 C18         1.9247   -5.6188   -8.4825 C.3       1 <0>         0.0174
     29 C19        -1.0803   -5.1553   -3.1686 C.3       1 <0>        -0.0619
     30 C20        -0.6931   -6.5343   -2.6305 C.3       1 <0>         0.0926
     31 H2         -0.5541   -7.2234   -3.4635 H         1 <0>         0.1201
     32 C21        -1.8044   -7.0557   -1.7173 C.3       1 <0>        -0.1208
     33 C22        -1.4173   -8.4347   -1.1792 C.3       1 <0>        -0.1488
     34 C23        -1.9996   -6.0884   -0.5480 C.3       1 <0>        -0.1651
     35 O5          0.5240   -6.4317   -1.8889 O.3       1 <0>        -0.5475
     36 H3          1.0136    1.9222   -0.1446 H         1 <0>         0.0889
     37 H4         -0.6826    1.7204   -0.6451 H         1 <0>         0.0883
     38 H5         -0.2565    1.7030    1.0830 H         1 <0>         0.0979
     39 H6          1.8576    0.5000    4.6444 H         1 <0>         0.0900
     40 H7         -0.1676   -1.5376    5.6755 H         1 <0>         0.0682
     41 H8          0.3730   -0.0808    6.5437 H         1 <0>         0.0813
     42 H9         -0.5546    0.0764    5.0326 H         1 <0>         0.0622
     43 H10         3.4751   -1.3576    4.9298 H         1 <0>         0.0663
     44 H11         2.7261   -0.9183    6.4836 H         1 <0>         0.0851
     45 H12         2.1855   -2.3751    5.6155 H         1 <0>         0.0698
     46 H13        -1.3906   -3.2727   -4.9273 H         1 <0>         0.1717
     47 H14         0.3239   -3.0300   -5.3396 H         1 <0>         0.1690
     48 H15         0.0098   -6.6248   -5.0006 H         1 <0>         0.1404
     49 H16        -1.0613   -5.4718   -5.8324 H         1 <0>         0.1466
     50 H17         0.9150   -4.1783   -6.5856 H         1 <0>         0.0974
     51 H18         1.9867   -5.3296   -5.7524 H         1 <0>         0.0637
     52 H19         2.3183   -7.5367   -6.6652 H         1 <0>         0.0555
     53 H20         0.5956   -7.8233   -6.3170 H         1 <0>         0.0870
     54 H21         1.4866   -9.3943   -8.0498 H         1 <0>         0.1058
     55 H22         0.1804   -8.3625   -8.6826 H         1 <0>         0.0647
     56 H23         2.5398   -6.2138  -10.4609 H         1 <0>         0.1072
     57 H24         0.8094   -6.4632  -10.1224 H         1 <0>         0.0655
     58 H25         1.6636   -4.5981   -8.7619 H         1 <0>         0.0940
     59 H26         2.9455   -5.6426   -8.1011 H         1 <0>         0.0540
     60 H27        -1.1286   -4.4440   -2.3441 H         1 <0>         0.1550
     61 H28        -2.0542   -5.2152   -3.6544 H         1 <0>         0.1396
     62 H29        -2.7328   -7.1340   -2.2830 H         1 <0>         0.0893
     63 H30        -0.4889   -8.3564   -0.6135 H         1 <0>         0.0679
     64 H31        -2.2090   -8.8062   -0.5285 H         1 <0>         0.0666
     65 H32        -1.2782   -9.1238   -2.0121 H         1 <0>         0.0597
     66 H33        -2.2754   -5.1060   -0.9314 H         1 <0>         0.0541
     67 H34        -2.7913   -6.4599    0.1026 H         1 <0>         0.0755
     68 H35        -1.0712   -6.0101    0.0176 H         1 <0>         0.0639
     69 H36         0.4735   -5.8335   -1.1308 H         1 <0>         0.3886
     70 H37         0.8415   -4.7464   -3.7198 H         1 <0>         0.4377
@<TRIPOS>BOND
     1    1    2 1
     2    1   36 1
     3    1   37 1
     4    1   38 1
     5    2   12 2
     6    2    3 1
     7    3   10 2
     8    3    4 1
     9    4    5 2
    10    4    6 am
    11    6    7 1
    12    6    8 1
    13    8    9 2
    14    8   19 1
    15    9   10 1
    16   10   11 1
    17   11   12 1
    18   12   13 1
    19   13   14 2
    20   13   15 1
    21   15   16 1
    22   16   17 1
    23   16   18 1
    24   16   39 1
    25   17   40 1
    26   17   41 1
    27   17   42 1
    28   18   43 1
    29   18   44 1
    30   18   45 1
    31   19   20 1
    32   19   46 1
    33   19   47 1
    34   20   21 1
    35   20   29 1
    36   20   70 1
    37   21   22 1
    38   21   48 1
    39   21   49 1
    40   22   23 1
    41   22   50 1
    42   22   51 1
    43   23   28 1
    44   23   24 1
    45   24   25 1
    46   24   52 1
    47   24   53 1
    48   25   26 1
    49   25   54 1
    50   25   55 1
    51   26   27 1
    52   27   28 1
    53   27   56 1
    54   27   57 1
    55   28   58 1
    56   28   59 1
    57   29   30 1
    58   29   60 1
    59   29   61 1
    60   30   31 1
    61   30   32 1
    62   30   35 1
    63   32   33 1
    64   32   34 1
    65   32   62 1
    66   33   63 1
    67   33   64 1
    68   33   65 1
    69   34   66 1
    70   34   67 1
    71   34   68 1
    72   35   69 1
