@<TRIPOS>MOLECULE
ZINC61849916
   37    37     0     0     0
SMALL
USER_CHARGES

@<TRIPOS>ATOM
      1 C1          0.0675    1.4897    0.0246 C.3       1 <0>        -0.1476
      2 C2          0.0499   -0.0402    0.0174 C.3       1 <0>        -0.1175
      3 C3          0.7623   -0.5643    1.2659 C.3       1 <0>        -0.1520
      4 C4         -1.3984   -0.5336    0.0117 C.3       1 <0>         0.1242
      5 N1         -1.4167   -1.9929   -0.1155 N.pl3     1 <0>        -0.5892
      6 C5         -1.3931   -2.8332    1.0844 C.3       1 <0>         0.0892
      7 C6         -2.8052   -3.1068    1.5338 C.2       1 <0>         0.4907
      8 O1         -3.7394   -2.6454    0.9130 O.2       1 <0>        -0.5254
      9 N2         -3.0301   -3.8643    2.6256 N.am      1 <0>        -0.8549
     10 C7         -1.4564   -2.5808   -1.3758 C.ar      1 <0>         0.2776
     11 C8         -1.4729   -1.7805   -2.5152 C.ar      1 <0>        -0.1998
     12 C9         -1.5118   -2.3575   -3.7635 C.ar      1 <0>        -0.0178
     13 C10        -1.5347   -3.7505   -3.8881 C.ar      1 <0>        -0.1764
     14 C11        -1.5180   -4.5524   -2.7412 C.ar      1 <0>         0.0812
     15 C12        -1.4737   -3.9669   -1.4945 C.ar      1 <0>        -0.2103
     16 Cl1        -1.5469   -6.2819   -2.8889 Cl        1 <0>         0.0084
     17 C13        -1.5767   -4.3718   -5.2228 C.2       1 <0>         0.3949
     18 S1         -1.4345   -6.0705   -5.3811 S.2       1 <0>        -0.5489
     19 N3         -1.7272   -3.6030   -6.3195 N.pl3     1 <0>        -0.7752
     20 H1          1.0992    1.8411    0.0287 H         1 <0>         0.0606
     21 H2         -0.4401    1.8630   -0.8648 H         1 <0>         0.0572
     22 H3         -0.4442    1.8547    0.9151 H         1 <0>         0.0572
     23 H4          0.5616   -0.4053   -0.8731 H         1 <0>         0.0773
     24 H5          0.2506   -0.1993    2.1564 H         1 <0>         0.0550
     25 H6          0.7497   -1.6542    1.2608 H         1 <0>         0.0570
     26 H7          1.7941   -0.2129    1.2699 H         1 <0>         0.0587
     27 H8         -1.8845   -0.2440    0.9434 H         1 <0>         0.0803
     28 H9         -1.9304   -0.0888   -0.8292 H         1 <0>         0.0841
     29 H10        -0.8947   -3.7758    0.8581 H         1 <0>         0.1122
     30 H11        -0.8525   -2.3178    1.8783 H         1 <0>         0.1172
     31 H12        -2.2830   -4.2333    3.1222 H         1 <0>         0.4025
     32 H13        -3.9390   -4.0404    2.9149 H         1 <0>         0.4047
     33 H14        -1.4556   -0.7049   -2.4188 H         1 <0>         0.1380
     34 H15        -1.5249   -1.7355   -4.6463 H         1 <0>         0.1313
     35 H16        -1.4563   -4.5844   -0.6087 H         1 <0>         0.1360
     36 H17        -1.7349   -2.6366   -6.2370 H         1 <0>         0.3978
     37 H18        -1.8277   -4.0162   -7.1913 H         1 <0>         0.4215
@<TRIPOS>BOND
     1    1    2 1
     2    1   20 1
     3    1   21 1
     4    1   22 1
     5    2    3 1
     6    2    4 1
     7    2   23 1
     8    3   24 1
     9    3   25 1
    10    3   26 1
    11    4    5 1
    12    4   27 1
    13    4   28 1
    14    5    6 1
    15    5   10 1
    16    6    7 1
    17    6   29 1
    18    6   30 1
    19    7    8 2
    20    7    9 am
    21    9   31 1
    22    9   32 1
    23   10   15 ar
    24   10   11 ar
    25   11   12 ar
    26   11   33 1
    27   12   13 ar
    28   12   34 1
    29   13   14 ar
    30   13   17 1
    31   14   15 ar
    32   14   16 1
    33   15   35 1
    34   17   18 2
    35   17   19 1
    36   19   36 1
    37   19   37 1
