@<TRIPOS>MOLECULE
ZINC63822623
   35    38     0     0     0
SMALL
USER_CHARGES

@<TRIPOS>ATOM
      1 C1         -0.0184    1.5028    0.0103 C.3       1 <0>        -0.0957
      2 C2          0.0021   -0.0041    0.0020 C.2       1 <0>         0.0127
      3 C3         -1.0658   -0.7692    0.0029 C.2       1 <0>        -0.1624
      4 C4         -2.5304   -0.4778    0.1872 C.3       1 <0>         0.0484
      5 H1         -2.9334   -0.0017   -0.7066 H         1 <0>         0.1413
      6 C5         -3.2119   -1.8408    0.4147 C.3       1 <0>        -0.1224
      7 H2         -3.2944   -2.3606   -0.5398 H         1 <0>         0.1629
      8 C6         -2.3790   -2.6709    1.3558 C.2       1 <0>         0.4890
      9 N1         -2.8785   -3.1732    2.4509 N.2       1 <0>        -0.6096
     10 C7         -4.1450   -2.9703    2.8290 C.2       1 <0>         0.6874
     11 O1         -4.5504   -3.4986    3.8474 O.2       1 <0>        -0.4888
     12 N2         -4.9815   -2.1994    2.1161 N.am      1 <0>        -0.6845
     13 C8         -4.5863   -1.6294    0.9769 C.2       1 <0>         0.5352
     14 O2         -5.3698   -0.9243    0.3780 O.2       1 <0>        -0.4810
     15 N3         -1.0617   -2.8986    1.0687 N.pl3     1 <0>        -0.6463
     16 C9         -0.5260   -2.1939   -0.1046 C.3       1 <0>         0.1993
     17 H3         -0.8314   -2.6741   -1.0342 H         1 <0>         0.1665
     18 N4          0.9205   -1.9854   -0.0328 N.2       1 <0>        -0.1425
     19 N5          1.1265   -0.7643   -0.0133 N.2       1 <0>        -0.1148
     20 C10        -2.7349    0.4131    1.3854 C.ar      1 <0>        -0.0926
     21 C11        -2.3226   -0.0061    2.6365 C.ar      1 <0>        -0.1100
     22 C12        -2.5095    0.8109    3.7356 C.ar      1 <0>        -0.0819
     23 C13        -3.1092    2.0481    3.5835 C.ar      1 <0>        -0.0781
     24 C14        -3.5216    2.4671    2.3314 C.ar      1 <0>        -0.0855
     25 C15        -3.3295    1.6516    1.2320 C.ar      1 <0>        -0.0825
     26 Br1        -3.3658    3.1661    5.0869 Br        1 <0>        -0.0370
     27 H4          1.0042    1.8801    0.0026 H         1 <0>         0.0871
     28 H5         -0.5455    1.8639   -0.8728 H         1 <0>         0.0882
     29 H6         -0.5286    1.8543    0.9071 H         1 <0>         0.0857
     30 H7         -5.8844   -2.0520    2.4383 H         1 <0>         0.4269
     31 H8         -0.5132   -3.4899    1.6076 H         1 <0>         0.4382
     32 H9         -1.8547   -0.9722    2.7553 H         1 <0>         0.1268
     33 H10        -2.1877    0.4832    4.7131 H         1 <0>         0.1375
     34 H11        -3.9898    3.4330    2.2122 H         1 <0>         0.1413
     35 H12        -3.6477    1.9804    0.2537 H         1 <0>         0.1413
@<TRIPOS>BOND
     1    1    2 1
     2    1   27 1
     3    1   28 1
     4    1   29 1
     5    2   19 1
     6    2    3 2
     7    3   16 1
     8    3    4 1
     9    4    5 1
    10    4    6 1
    11    4   20 1
    12    6    7 1
    13    6   13 1
    14    6    8 1
    15    8    9 2
    16    8   15 1
    17    9   10 1
    18   10   11 2
    19   10   12 am
    20   12   13 am
    21   12   30 1
    22   13   14 2
    23   15   16 1
    24   15   31 1
    25   16   17 1
    26   16   18 1
    27   18   19 2
    28   20   25 ar
    29   20   21 ar
    30   21   22 ar
    31   21   32 1
    32   22   23 ar
    33   22   33 1
    34   23   24 ar
    35   23   26 1
    36   24   25 ar
    37   24   34 1
    38   25   35 1
