@<TRIPOS>MOLECULE
ZINC20973293
   56    57     0     0     0
SMALL
USER_CHARGES
[2-oxo-2-[(3,4,5-trimethoxyphenyl)amino]ethyl] (3S)-3-(4-chlorophenyl)-3-ureido-propanoate
@<TRIPOS>ATOM
      1 C1         -3.1656    6.9975    8.3923 C.3       1 <0>         0.0207
      2 O1         -2.4635    6.6538    9.5885 O.3       1 <0>        -0.2987
      3 C2         -1.8579    5.4365    9.6209 C.ar      1 <0>         0.1687
      4 C3         -1.9388    4.5926    8.5244 C.ar      1 <0>        -0.2375
      5 C4         -1.3216    3.3497    8.5576 C.ar      1 <0>         0.2236
      6 C5         -0.6273    2.9487    9.6907 C.ar      1 <0>        -0.2597
      7 C6         -0.5402    3.7937   10.7859 C.ar      1 <0>         0.1686
      8 C7         -1.1582    5.0381   10.7538 C.ar      1 <0>         0.0147
      9 O2         -1.0779    5.8667   11.8312 O.3       1 <0>        -0.3105
     10 C8         -2.1025    5.7463   12.8200 C.3       1 <0>         0.0317
     11 O3          0.1452    3.4031   11.8936 O.3       1 <0>        -0.2985
     12 C9          0.7554    2.1114   11.8571 C.3       1 <0>         0.0206
     13 N1         -1.4042    2.4973    7.4490 N.am      1 <0>        -0.6817
     14 C10        -1.4050    3.0106    6.2028 C.2       1 <0>         0.5180
     15 O4         -1.4136    4.2128    6.0421 O.2       1 <0>        -0.4947
     16 C11        -1.3952    2.0908    5.0091 C.3       1 <0>         0.0497
     17 O5         -1.3981    2.8798    3.7902 O.3       1 <0>        -0.3328
     18 C12        -1.3902    2.2070    2.6287 C.2       1 <0>         0.4613
     19 O6         -1.3812    0.9987    2.6305 O.2       1 <0>        -0.4881
     20 C13        -1.3926    2.9585    1.3225 C.3       1 <0>        -0.1176
     21 C14        -1.3823    1.9626    0.1611 C.3       1 <0>         0.2217
     22 H1         -2.2035    1.2369    0.2559 H         1 <0>         0.1096
     23 C15        -1.5084    2.7091   -1.1420 C.ar      1 <0>        -0.0944
     24 C16        -0.3844    3.2435   -1.7437 C.ar      1 <0>        -0.0882
     25 C17        -0.4988    3.9234   -2.9417 C.ar      1 <0>        -0.1113
     26 C18        -1.7400    4.0788   -3.5328 C.ar      1 <0>        -0.0313
     27 C19        -2.8653    3.5487   -2.9272 C.ar      1 <0>        -0.1082
     28 C20        -2.7489    2.8641   -1.7321 C.ar      1 <0>        -0.0887
     29 Cl1        -1.8854    4.9393   -5.0335 Cl        1 <0>        -0.0685
     30 N2         -0.1248    1.2109    0.1734 N.am      1 <0>        -0.7487
     31 C21        -0.0408    0.0276   -0.4661 C.2       1 <0>         0.7160
     32 O7         -1.0305   -0.4577   -0.9793 O.2       1 <0>        -0.5965
     33 N3          1.1403   -0.6179   -0.5368 N.am      1 <0>        -0.8921
     34 H2         -3.6044    8.0004    8.5000 H         1 <0>         0.1057
     35 H3         -3.9659    6.2644    8.2134 H         1 <0>         0.0565
     36 H4         -2.4669    6.9923    7.5427 H         1 <0>         0.0644
     37 H5         -2.4825    4.9020    7.6440 H         1 <0>         0.1532
     38 H6         -0.1514    1.9795    9.7175 H         1 <0>         0.1397
     39 H7         -1.9179    6.4683   13.6291 H         1 <0>         0.0941
     40 H8         -2.0975    4.7259   13.2308 H         1 <0>         0.0444
     41 H9         -3.0808    5.9520   12.3612 H         1 <0>         0.0447
     42 H10         1.2730    1.9234   12.8093 H         1 <0>         0.1059
     43 H11         1.4810    2.0719   11.0313 H         1 <0>         0.0591
     44 H12        -0.0181    1.3447   11.7025 H         1 <0>         0.0582
     45 H13        -1.4684    1.4090    7.5956 H         1 <0>         0.4411
     46 H14        -0.4924    1.4630    5.0374 H         1 <0>         0.1082
     47 H15        -2.2886    1.4495    5.0330 H         1 <0>         0.1084
     48 H16        -2.2953    3.5841    1.2611 H         1 <0>         0.1294
     49 H17        -0.4991    3.5975    1.2655 H         1 <0>         0.1198
     50 H18         0.5838    3.1259   -1.2800 H         1 <0>         0.1289
     51 H19         0.3800    4.3370   -3.4139 H         1 <0>         0.1334
     52 H20        -3.8345    3.6700   -3.3879 H         1 <0>         0.1357
     53 H21        -3.6273    2.4505   -1.2591 H         1 <0>         0.1341
     54 H22         0.7508    1.6124    0.7046 H         1 <0>         0.4099
     55 H23         1.2088   -1.5837   -1.0588 H         1 <0>         0.4369
     56 H24         2.0357   -0.1789   -0.0725 H         1 <0>         0.4110
@<TRIPOS>BOND
     1    1    2 1
     2    1   34 1
     3    1   35 1
     4    1   36 1
     5    2    3 1
     6    3    8 ar
     7    3    4 ar
     8    4    5 ar
     9    4   37 1
    10    5    6 ar
    11    5   13 1
    12    6    7 ar
    13    6   38 1
    14    7    8 ar
    15    7   11 1
    16    8    9 1
    17    9   10 1
    18   10   39 1
    19   10   40 1
    20   10   41 1
    21   11   12 1
    22   12   42 1
    23   12   43 1
    24   12   44 1
    25   13   14 am
    26   13   45 1
    27   14   15 2
    28   14   16 1
    29   16   17 1
    30   16   46 1
    31   16   47 1
    32   17   18 1
    33   18   19 2
    34   18   20 1
    35   20   21 1
    36   20   48 1
    37   20   49 1
    38   21   22 1
    39   21   23 1
    40   21   30 1
    41   23   28 ar
    42   23   24 ar
    43   24   25 ar
    44   24   50 1
    45   25   26 ar
    46   25   51 1
    47   26   27 ar
    48   26   29 1
    49   27   28 ar
    50   27   52 1
    51   28   53 1
    52   30   31 am
    53   30   54 1
    54   31   32 2
    55   31   33 am
    56   33   55 1
    57   33   56 1
