@<TRIPOS>MOLECULE
ZINC12999197
   50    53     0     0     0
SMALL
USER_CHARGES
2-cyclopropyl-4-methyl-6-[2-[(2R)-2-methyl-4-oxo-3,5-dihydro-2H-1,5-benzodiazepin-1-yl]-2-oxo-ethyl]sulfanyl-pyrimidine-5-carbonitrile
@<TRIPOS>ATOM
      1 C1         -2.5393    1.3941    0.0214 C.3       1 <0>        -0.1170
      2 C2         -1.2248    2.1311    0.0193 C.ar      1 <0>         0.2532
      3 C3         -0.0173    1.4278    0.0099 C.ar      1 <0>        -0.1303
      4 C4          1.1825    2.1711    0.0024 C.ar      1 <0>         0.1907
      5 N1          1.1113    3.4994    0.0098 N.ar      1 <0>        -0.5283
      6 C5         -0.0537    4.1129    0.0237 C.ar      1 <0>         0.4002
      7 N2         -1.1966    3.4533    0.0307 N.ar      1 <0>        -0.5193
      8 C6         -0.0829    5.6196    0.0316 C.3       1 <0>        -0.1108
      9 C7          1.2426    6.3529   -0.1835 C.3       1 <0>        -0.1483
     10 C8          0.5946    6.3331    1.2032 C.3       1 <0>        -0.1484
     11 S1          2.7442    1.3554   -0.0168 S.3       1 <0>         0.0689
     12 C9          3.8480    2.7899   -0.0197 C.3       1 <0>        -0.1471
     13 C10         5.2803    2.3216   -0.0359 C.2       1 <0>         0.5421
     14 O1          5.5302    1.1347   -0.0446 O.2       1 <0>        -0.5046
     15 N3          6.2835    3.2216   -0.0406 N.am      1 <0>        -0.5619
     16 C11         6.0091    4.5962   -0.0306 C.ar      1 <0>         0.1026
     17 C12         5.5199    5.2107    1.1104 C.ar      1 <0>        -0.0957
     18 C13         5.2770    6.5720    1.1084 C.ar      1 <0>        -0.1099
     19 C14         5.5217    7.3222   -0.0275 C.ar      1 <0>        -0.0871
     20 C15         6.0015    6.7147   -1.1735 C.ar      1 <0>        -0.1214
     21 C16         6.2375    5.3501   -1.1825 C.ar      1 <0>         0.1435
     22 N4          6.6701    4.7042   -2.3464 N.am      1 <0>        -0.6761
     23 C17         7.7097    3.8427   -2.3058 C.2       1 <0>         0.5280
     24 O2          8.0215    3.2272   -3.3034 O.2       1 <0>        -0.5175
     25 C18         8.4845    3.6418   -1.0303 C.3       1 <0>        -0.1513
     26 C19         7.6797    2.7814   -0.0501 C.3       1 <0>         0.1464
     27 H1          7.7283    1.7374   -0.3599 H         1 <0>         0.1133
     28 C20         8.2664    2.9207    1.3560 C.3       1 <0>        -0.1609
     29 C21         0.0021   -0.0041    0.0020 C.1       1 <0>         0.2521
     30 N5          0.0175   -1.1399   -0.0042 N.1       1 <0>        -0.3793
     31 H2         -2.8515    1.2109    1.0496 H         1 <0>         0.0992
     32 H3         -3.2939    1.9955   -0.4857 H         1 <0>         0.0979
     33 H4         -2.4234    0.4429   -0.4981 H         1 <0>         0.0838
     34 H5         -0.9827    6.0745   -0.3824 H         1 <0>         0.1360
     35 H6          2.1357    5.7456   -0.3307 H         1 <0>         0.1076
     36 H7          1.2147    7.2905   -0.7386 H         1 <0>         0.1042
     37 H8          0.1407    7.2578    1.5598 H         1 <0>         0.1075
     38 H9          1.0611    5.7128    1.9685 H         1 <0>         0.0971
     39 H10         3.6538    3.3960   -0.9046 H         1 <0>         0.1284
     40 H11         3.6708    3.3864    0.8752 H         1 <0>         0.1310
     41 H12         5.3284    4.6280    1.9993 H         1 <0>         0.1327
     42 H13         4.8943    7.0513    1.9973 H         1 <0>         0.1351
     43 H14         5.3371    8.3862   -0.0196 H         1 <0>         0.1356
     44 H15         6.1923    7.3031   -2.0588 H         1 <0>         0.1362
     45 H16         6.2199    4.8763   -3.1882 H         1 <0>         0.4127
     46 H17         9.4286    3.1456   -1.2553 H         1 <0>         0.1202
     47 H18         8.6855    4.6107   -0.5732 H         1 <0>         0.0985
     48 H19         7.6954    2.3046    2.0507 H         1 <0>         0.0681
     49 H20         9.3060    2.5931    1.3501 H         1 <0>         0.0778
     50 H21         8.2158    3.9635    1.6692 H         1 <0>         0.0644
@<TRIPOS>BOND
     1    1    2 1
     2    1   31 1
     3    1   32 1
     4    1   33 1
     5    2    7 ar
     6    2    3 ar
     7    3    4 ar
     8    3   29 1
     9    4    5 ar
    10    4   11 1
    11    5    6 ar
    12    6    7 ar
    13    6    8 1
    14    8   10 1
    15    8    9 1
    16    8   34 1
    17    9   10 1
    18    9   35 1
    19    9   36 1
    20   10   37 1
    21   10   38 1
    22   11   12 1
    23   12   13 1
    24   12   39 1
    25   12   40 1
    26   13   14 2
    27   13   15 am
    28   15   26 1
    29   15   16 1
    30   16   21 ar
    31   16   17 ar
    32   17   18 ar
    33   17   41 1
    34   18   19 ar
    35   18   42 1
    36   19   20 ar
    37   19   43 1
    38   20   21 ar
    39   20   44 1
    40   21   22 1
    41   22   23 am
    42   22   45 1
    43   23   24 2
    44   23   25 1
    45   25   26 1
    46   25   46 1
    47   25   47 1
    48   26   27 1
    49   26   28 1
    50   28   48 1
    51   28   49 1
    52   28   50 1
    53   29   30 3
