@<TRIPOS>MOLECULE
ZINC32504599
   54    56     0     0     0
SMALL
USER_CHARGES
tert-butyl N-[2-[[(3aR,6aR)-5,5-dioxo-3-(p-tolyl)-3a,4,6,6a-tetrahydrothieno[3,4-d]thiazol-2-ylidene]amino]-2-oxo-ethyl]carbamate
@<TRIPOS>ATOM
      1 C1         10.6299    4.0744    4.2673 C.3       1 <0>        -0.1224
      2 C2          9.6490    3.1954    4.9996 C.ar      1 <0>        -0.0704
      3 C3          9.1773    2.0410    4.4019 C.ar      1 <0>        -0.1074
      4 C4          8.2783    1.2333    5.0703 C.ar      1 <0>        -0.0870
      5 C5          7.8480    1.5815    6.3441 C.ar      1 <0>         0.1169
      6 C6          8.3193    2.7445    6.9393 C.ar      1 <0>        -0.1065
      7 C7          9.2229    3.5447    6.2679 C.ar      1 <0>        -0.1096
      8 N1          6.9377    0.7657    7.0238 N.pl3     1 <0>        -0.5287
      9 C8          7.3535    0.0545    8.2185 C.3       1 <0>         0.1311
     10 H1          7.6536    0.8298    8.9388 H         1 <0>         0.1274
     11 C9          8.5627   -0.8477    7.8774 C.3       1 <0>        -0.5919
     12 S1          8.2663   -2.3043    8.9696 S.o2      1 <0>         2.3755
     13 O1          8.6851   -3.4865    8.3015 O.2       1 <0>        -0.9166
     14 O2          8.7535   -2.0213   10.2741 O.2       1 <0>        -0.9132
     15 C10         6.4218   -2.2250    8.9736 C.3       1 <0>        -0.5625
     16 C11         6.1924   -0.7043    8.8719 C.3       1 <0>        -0.1409
     17 H2          6.1729   -0.4376    9.9389 H         1 <0>         0.1624
     18 S2          4.8335   -0.3756    7.6907 S.3       1 <0>         0.0688
     19 C12         5.6670    0.6406    6.5657 C.2       1 <0>         0.4583
     20 N2          5.1602    1.1947    5.4705 N.2       1 <0>        -0.5972
     21 C13         3.8877    0.9814    5.1447 C.2       1 <0>         0.4911
     22 O3          3.1893    0.2793    5.8496 O.2       1 <0>        -0.5197
     23 C14         3.3126    1.6102    3.9017 C.3       1 <0>         0.1487
     24 N3          1.9055    1.2256    3.7662 N.am      1 <0>        -0.7206
     25 C15         1.1821    1.6736    2.7210 C.2       1 <0>         0.6563
     26 O4          1.6970    2.3965    1.8910 O.2       1 <0>        -0.5712
     27 O5         -0.1110    1.3202    2.5964 O.3       1 <0>        -0.3626
     28 C16        -0.8286    1.8398    1.4460 C.3       1 <0>         0.1377
     29 C17        -0.1467    1.3634    0.1618 C.3       1 <0>        -0.1863
     30 C18        -0.8227    3.3691    1.4894 C.3       1 <0>        -0.1863
     31 C19        -2.2724    1.3342    1.4744 C.3       1 <0>        -0.1438
     32 H3         10.8487    3.6377    3.2817 H         1 <0>         0.0691
     33 H4         11.5601    4.1500    4.8495 H         1 <0>         0.0737
     34 H5         10.1968    5.0770    4.1362 H         1 <0>         0.0747
     35 H6          9.5120    1.7710    3.4112 H         1 <0>         0.1309
     36 H7          7.9100    0.3321    4.6029 H         1 <0>         0.1256
     37 H8          7.9832    3.0204    7.9279 H         1 <0>         0.1258
     38 H9          9.5935    4.4467    6.7321 H         1 <0>         0.1305
     39 H10         8.5424   -1.0986    6.8066 H         1 <0>         0.1540
     40 H11         9.4958   -0.3142    8.1114 H         1 <0>         0.1605
     41 H12         6.0288   -2.7868    8.1134 H         1 <0>         0.1543
     42 H13         6.0379   -2.6655    9.9055 H         1 <0>         0.1615
     43 H14         3.3880    2.7051    3.9762 H         1 <0>         0.1063
     44 H15         3.8740    1.2631    3.0218 H         1 <0>         0.1065
     45 H16         1.4394    0.5712    4.5175 H         1 <0>         0.4405
     46 H17        -0.6903    1.7570   -0.7097 H         1 <0>         0.0716
     47 H18        -0.1509    0.2638    0.1306 H         1 <0>         0.0599
     48 H19         0.8913    1.7269    0.1413 H         1 <0>         0.0884
     49 H20        -1.3663    3.7627    0.6179 H         1 <0>         0.0716
     50 H21         0.2153    3.7325    1.4688 H         1 <0>         0.0884
     51 H22        -1.3129    3.7116    2.4127 H         1 <0>         0.0599
     52 H23        -2.8159    1.7279    0.6029 H         1 <0>         0.0822
     53 H24        -2.7627    1.6766    2.3976 H         1 <0>         0.0675
     54 H25        -2.2765    0.2347    1.4431 H         1 <0>         0.0676
@<TRIPOS>BOND
     1    1    2 1
     2    1   32 1
     3    1   33 1
     4    1   34 1
     5    2    7 ar
     6    2    3 ar
     7    3    4 ar
     8    3   35 1
     9    4    5 ar
    10    4   36 1
    11    5    6 ar
    12    5    8 1
    13    6    7 ar
    14    6   37 1
    15    7   38 1
    16    8   19 1
    17    8    9 1
    18    9   10 1
    19    9   16 1
    20    9   11 1
    21   11   12 1
    22   11   39 1
    23   11   40 1
    24   12   13 2
    25   12   14 2
    26   12   15 1
    27   15   16 1
    28   15   41 1
    29   15   42 1
    30   16   17 1
    31   16   18 1
    32   18   19 1
    33   19   20 2
    34   20   21 1
    35   21   22 2
    36   21   23 1
    37   23   24 1
    38   23   43 1
    39   23   44 1
    40   24   25 am
    41   24   45 1
    42   25   26 2
    43   25   27 1
    44   27   28 1
    45   28   29 1
    46   28   30 1
    47   28   31 1
    48   29   46 1
    49   29   47 1
    50   29   48 1
    51   30   49 1
    52   30   50 1
    53   30   51 1
    54   31   52 1
    55   31   53 1
    56   31   54 1
