@<TRIPOS>MOLECULE
ZINC16044417
   50    51     0     0     0
SMALL
USER_CHARGES
(2R)-N-[3-[(2-bromo-5-methyl-phenyl)sulfamoyl]-4-methoxy-phenyl]-2-ureido-propanamide
@<TRIPOS>ATOM
      1 C1          3.1352    1.7282   -4.0106 C.3       1 <0>        -0.1262
      2 C2          2.5543    3.0611   -3.6143 C.ar      1 <0>        -0.0234
      3 C3          2.7429    4.1652   -4.4255 C.ar      1 <0>        -0.1383
      4 C4          2.2114    5.3900   -4.0662 C.ar      1 <0>        -0.0555
      5 C5          1.4846    5.5133   -2.8973 C.ar      1 <0>        -0.1271
      6 C6          1.2983    4.4069   -2.0773 C.ar      1 <0>         0.2078
      7 C7          1.8339    3.1783   -2.4419 C.ar      1 <0>        -0.1694
      8 N1          0.5689    4.5288   -0.8918 N.pl3     1 <0>        -1.0460
      9 S1          0.9431    3.5787    0.4120 S.o2      1 <0>         2.6950
     10 O1          0.0655    3.9645    1.4609 O.2       1 <0>        -0.9322
     11 O2          2.3569    3.6158    0.5492 O.2       1 <0>        -0.9343
     12 C8          0.5218    1.9214   -0.0131 C.ar      1 <0>        -0.6982
     13 C9          1.5039    0.9520   -0.0688 C.ar      1 <0>         0.0076
     14 C10         1.1719   -0.3536   -0.4041 C.ar      1 <0>         0.0899
     15 C11        -0.1477   -0.6839   -0.6835 C.ar      1 <0>        -0.0409
     16 C12        -1.1285    0.2862   -0.6275 C.ar      1 <0>        -0.2030
     17 C13        -0.7960    1.5908   -0.2923 C.ar      1 <0>         0.2183
     18 O3         -1.7615    2.5469   -0.2429 O.3       1 <0>        -0.3113
     19 C14        -3.0740    2.1657   -0.6602 C.3       1 <0>         0.0236
     20 N2          2.1678   -1.3375   -0.4612 N.am      1 <0>        -0.6640
     21 C15         3.4094   -1.0163   -0.8756 C.2       1 <0>         0.5106
     22 O4          3.6882    0.1392   -1.1172 O.2       1 <0>        -0.5077
     23 C16         4.4513   -2.0928   -1.0387 C.3       1 <0>         0.1483
     24 H1          4.6133   -2.5896   -0.0821 H         1 <0>         0.1211
     25 C17         3.9706   -3.1158   -2.0698 C.3       1 <0>        -0.1624
     26 N3          5.7069   -1.4919   -1.4956 N.am      1 <0>        -0.7302
     27 C18         6.8794   -2.1061   -1.2419 C.2       1 <0>         0.7115
     28 O5          6.8952   -3.1589   -0.6338 O.2       1 <0>        -0.5932
     29 N4          8.0345   -1.5533   -1.6622 N.am      1 <0>        -0.8631
     30 Br1         0.7513    7.1869   -2.4103 Br        1 <0>        -0.0416
     31 H2          2.4111    1.1814   -4.6145 H         1 <0>         0.0720
     32 H3          4.0455    1.8861   -4.5890 H         1 <0>         0.0719
     33 H4          3.3692    1.1531   -3.1147 H         1 <0>         0.0853
     34 H5          3.3071    4.0706   -5.3416 H         1 <0>         0.1353
     35 H6          2.3606    6.2503   -4.7019 H         1 <0>         0.1393
     36 H7          1.6868    2.3154   -1.8093 H         1 <0>         0.1394
     37 H8         -0.1565    5.1699   -0.8324 H         1 <0>         0.4307
     38 H9          2.5299    1.2094    0.1489 H         1 <0>         0.1709
     39 H10        -0.4067   -1.6994   -0.9441 H         1 <0>         0.1423
     40 H11        -2.1548    0.0295   -0.8451 H         1 <0>         0.1465
     41 H12        -3.7255    3.0395   -0.6538 H         1 <0>         0.1110
     42 H13        -3.0293    1.7531   -1.6681 H         1 <0>         0.0638
     43 H14        -3.4683    1.4135    0.0231 H         1 <0>         0.0652
     44 H15         1.9637   -2.2498   -0.2024 H         1 <0>         0.4171
     45 H16         4.7242   -3.8944   -2.1878 H         1 <0>         0.0806
     46 H17         3.0364   -3.5629   -1.7298 H         1 <0>         0.0721
     47 H18         3.8087   -2.6190   -3.0263 H         1 <0>         0.0659
     48 H19         5.6943   -0.6520   -1.9807 H         1 <0>         0.4078
     49 H20         8.0220   -0.7135   -2.1473 H         1 <0>         0.3996
     50 H21         8.8784   -1.9954   -1.4796 H         1 <0>         0.4180
@<TRIPOS>BOND
     1    1    2 1
     2    1   31 1
     3    1   32 1
     4    1   33 1
     5    2    7 ar
     6    2    3 ar
     7    3    4 ar
     8    3   34 1
     9    4    5 ar
    10    4   35 1
    11    5    6 ar
    12    5   30 1
    13    6    7 ar
    14    6    8 1
    15    7   36 1
    16    8    9 1
    17    8   37 1
    18    9   10 2
    19    9   11 2
    20    9   12 1
    21   12   17 ar
    22   12   13 ar
    23   13   14 ar
    24   13   38 1
    25   14   15 ar
    26   14   20 1
    27   15   16 ar
    28   15   39 1
    29   16   17 ar
    30   16   40 1
    31   17   18 1
    32   18   19 1
    33   19   41 1
    34   19   42 1
    35   19   43 1
    36   20   21 am
    37   20   44 1
    38   21   22 2
    39   21   23 1
    40   23   24 1
    41   23   25 1
    42   23   26 1
    43   25   45 1
    44   25   46 1
    45   25   47 1
    46   26   27 am
    47   26   48 1
    48   27   28 2
    49   27   29 am
    50   29   49 1
    51   29   50 1
