@<TRIPOS>MOLECULE
ZINC54176654
   43    43     0     0     0
SMALL
USER_CHARGES

@<TRIPOS>ATOM
      1 C1          0.3498   -0.3930   -0.2969 C.3       1 <0>        -0.1632
      2 C2         -0.4569   -1.6145   -0.7419 C.3       1 <0>        -0.1336
      3 C3         -1.9477   -1.2704   -0.7374 C.3       1 <0>         0.1649
      4 H1         -2.2384   -0.9273    0.2555 H         1 <0>         0.1138
      5 C4         -2.7593   -2.5142   -1.1052 C.3       1 <0>        -0.0760
      6 C5         -4.2299   -2.2090   -0.9817 C.2       1 <0>         0.3594
      7 N1         -4.6167   -1.0335   -0.6110 N.2       1 <0>        -0.4142
      8 O1         -5.9985   -0.7467   -0.4949 O.3       1 <0>        -0.4223
      9 N2         -5.1614   -3.1833   -1.2639 N.pl3     1 <0>        -0.8732
     10 N3         -2.2072   -0.2111   -1.7156 N.pl3     1 <0>        -1.1143
     11 S1         -3.0175    1.1586   -1.2574 S.o2      1 <0>         2.7941
     12 O2         -3.8515    1.5214   -2.3491 O.2       1 <0>        -0.9849
     13 O3         -3.5311    0.9104    0.0441 O.2       1 <0>        -0.9486
     14 N4         -1.8924    2.3635   -1.1003 N.pl3     1 <0>        -1.0139
     15 C6         -1.4692    2.8239    0.2292 C.3       1 <0>         0.1186
     16 C7          0.0585    2.7494    0.3136 C.3       1 <0>        -0.1463
     17 C8          0.6686    3.5373   -0.8480 C.3       1 <0>        -0.0891
     18 C9          0.2273    2.9162   -2.1753 C.3       1 <0>        -0.1321
     19 C10        -1.2940    2.9884   -2.2878 C.3       1 <0>         0.1221
     20 C11         2.1947    3.4940   -0.7474 C.3       1 <0>        -0.1478
     21 H2          1.3962   -0.6731   -0.1758 H         1 <0>         0.0585
     22 H3          0.2682    0.3904   -1.0503 H         1 <0>         0.0649
     23 H4         -0.0403   -0.0261    0.6525 H         1 <0>         0.0593
     24 H5         -0.1536   -1.9033   -1.7482 H         1 <0>         0.0697
     25 H6         -0.2728   -2.4412   -0.0557 H         1 <0>         0.0767
     26 H7         -2.5335   -2.8051   -2.1311 H         1 <0>         0.0980
     27 H8         -2.4996   -3.3300   -0.4307 H         1 <0>         0.1048
     28 H9         -6.1901    0.1578   -0.2118 H         1 <0>         0.4007
     29 H10        -4.8710   -4.0660   -1.5422 H         1 <0>         0.3951
     30 H11        -6.1080   -2.9869   -1.1843 H         1 <0>         0.4071
     31 H12        -1.9045   -0.3120   -2.6316 H         1 <0>         0.4072
     32 H13        -1.7938    3.8535    0.3798 H         1 <0>         0.0680
     33 H14        -1.9091    2.1844    0.9945 H         1 <0>         0.0952
     34 H15         0.3920    3.1780    1.2587 H         1 <0>         0.0727
     35 H16         0.3759    1.7084    0.2535 H         1 <0>         0.0822
     36 H17         0.3311    4.5726   -0.8015 H         1 <0>         0.0707
     37 H18         0.6810    3.4635   -3.0016 H         1 <0>         0.0742
     38 H19         0.5431    1.8736   -2.2119 H         1 <0>         0.0687
     39 H20        -1.6183    2.4574   -3.1828 H         1 <0>         0.0779
     40 H21        -1.6039    4.0318   -2.3471 H         1 <0>         0.0712
     41 H22         2.5326    2.4587   -0.7932 H         1 <0>         0.0540
     42 H23         2.6294    4.0550   -1.5746 H         1 <0>         0.0545
     43 H24         2.5093    3.9373    0.1974 H         1 <0>         0.0552
@<TRIPOS>BOND
     1    1    2 1
     2    1   21 1
     3    1   22 1
     4    1   23 1
     5    2    3 1
     6    2   24 1
     7    2   25 1
     8    3    4 1
     9    3    5 1
    10    3   10 1
    11    5    6 1
    12    5   26 1
    13    5   27 1
    14    6    7 2
    15    6    9 1
    16    7    8 1
    17    8   28 1
    18    9   29 1
    19    9   30 1
    20   10   11 1
    21   10   31 1
    22   11   12 2
    23   11   13 2
    24   11   14 1
    25   14   19 1
    26   14   15 1
    27   15   16 1
    28   15   32 1
    29   15   33 1
    30   16   17 1
    31   16   34 1
    32   16   35 1
    33   17   18 1
    34   17   20 1
    35   17   36 1
    36   18   19 1
    37   18   37 1
    38   18   38 1
    39   19   39 1
    40   19   40 1
    41   20   41 1
    42   20   42 1
    43   20   43 1
