@<TRIPOS>MOLECULE
ZINC39947039
   46    49     0     0     0
SMALL
USER_CHARGES

@<TRIPOS>ATOM
      1 C1         -0.0167    1.3784    0.0096 C.ar      1 <0>        -0.0914
      2 C2          1.1633    2.1032    0.0022 C.ar      1 <0>        -0.1321
      3 C3          2.3743    1.4420   -0.0196 C.ar      1 <0>        -0.0657
      4 C4          2.3984    0.0485   -0.0304 C.ar      1 <0>        -0.0468
      5 C5          1.2022   -0.6897   -0.0112 C.ar      1 <0>        -0.0366
      6 C6          0.0021   -0.0041    0.0020 C.ar      1 <0>        -0.1267
      7 C7          1.1944   -2.1915    0.0143 C.3       1 <0>        -0.0890
      8 C8          2.5083   -2.8186   -0.4471 C.3       1 <0>        -0.0892
      9 C9          3.6655   -2.1882    0.3286 C.3       1 <0>        -0.1170
     10 H1          3.5672   -2.3325    1.4045 H         1 <0>         0.1576
     11 C10         3.6461   -0.7085   -0.0723 C.2       1 <0>         0.1500
     12 N1          4.8560   -0.4409   -0.4321 N.2       1 <0>        -0.2888
     13 N2          5.5951   -1.4802   -0.5623 N.2       1 <0>        -0.2523
     14 C11         5.0192   -2.6157   -0.1857 C.2       1 <0>         0.0604
     15 C12         5.5611   -3.9762   -0.2534 C.2       1 <0>         0.5765
     16 O1          4.8933   -4.9173    0.1341 O.2       1 <0>        -0.3951
     17 N3          6.7987   -4.1850   -0.7447 N.am      1 <0>        -0.5761
     18 N4          7.3165   -5.4851   -0.8094 N.2       1 <0>        -0.1656
     19 C13         8.5091   -5.6863   -1.2829 C.2       1 <0>         0.0878
     20 C14         9.0537   -7.0536   -1.3509 C.ar      1 <0>        -0.1003
     21 C15        10.3382   -7.2739   -1.8541 C.ar      1 <0>        -0.0541
     22 C16        10.8420   -8.5560   -1.9145 C.ar      1 <0>        -0.1819
     23 C17        10.0802   -9.6268   -1.4785 C.ar      1 <0>        -0.0643
     24 C18         8.8079   -9.4223   -0.9791 C.ar      1 <0>        -0.2254
     25 C19         8.2882   -8.1403   -0.9057 C.ar      1 <0>         0.1709
     26 O2          7.0402   -7.9377   -0.4098 O.3       1 <0>        -0.2389
     27 C20         6.3194   -9.0925    0.0247 C.3       1 <0>        -0.0141
     28 C21         4.9659   -8.6755    0.5395 C.2       1 <0>         0.4909
     29 O3          4.6480   -7.4985    0.5348 O.co2     1 <0>        -0.6275
     30 O4          4.1887   -9.5152    0.9608 O.co2     1 <0>        -0.7035
     31 H2         -0.9627    1.8992    0.0260 H         1 <0>         0.1270
     32 H3          1.1358    3.1828    0.0132 H         1 <0>         0.1302
     33 H4          3.2983    2.0012   -0.0286 H         1 <0>         0.1342
     34 H5         -0.9283   -0.5525    0.0064 H         1 <0>         0.1311
     35 H6          0.9891   -2.5218    1.0326 H         1 <0>         0.0928
     36 H7          0.3923   -2.5469   -0.6326 H         1 <0>         0.0913
     37 H8          2.4854   -3.8920   -0.2587 H         1 <0>         0.1083
     38 H9          2.6434   -2.6379   -1.5135 H         1 <0>         0.0715
     39 H10         7.3308   -3.4350   -1.0535 H         1 <0>         0.3826
     40 H11         9.1016   -4.8514   -1.6267 H         1 <0>         0.1145
     41 H12        10.9356   -6.4414   -2.1955 H         1 <0>         0.1279
     42 H13        11.8350   -8.7257   -2.3039 H         1 <0>         0.1210
     43 H14        10.4824  -10.6279   -1.5294 H         1 <0>         0.1201
     44 H15         8.2196  -10.2627   -0.6413 H         1 <0>         0.1301
     45 H16         6.1939   -9.7788   -0.8128 H         1 <0>         0.0528
     46 H17         6.8740   -9.5886    0.8211 H         1 <0>         0.0528
@<TRIPOS>BOND
     1    1    6 ar
     2    1    2 ar
     3    1   31 1
     4    2    3 ar
     5    2   32 1
     6    3    4 ar
     7    3   33 1
     8    4   11 1
     9    4    5 ar
    10    5    6 ar
    11    5    7 1
    12    6   34 1
    13    7    8 1
    14    7   35 1
    15    7   36 1
    16    8    9 1
    17    8   37 1
    18    8   38 1
    19    9   10 1
    20    9   14 1
    21    9   11 1
    22   11   12 2
    23   12   13 1
    24   13   14 2
    25   14   15 1
    26   15   16 2
    27   15   17 am
    28   17   18 1
    29   17   39 1
    30   18   19 2
    31   19   20 1
    32   19   40 1
    33   20   25 ar
    34   20   21 ar
    35   21   22 ar
    36   21   41 1
    37   22   23 ar
    38   22   42 1
    39   23   24 ar
    40   23   43 1
    41   24   25 ar
    42   24   44 1
    43   25   26 1
    44   26   27 1
    45   27   28 1
    46   27   45 1
    47   27   46 1
    48   28   29 2
    49   28   30 1
