@<TRIPOS>MOLECULE
ZINC31890707
   36    37     0     0     0
SMALL
USER_CHARGES
(2S)-2-[(1R)-1-methylpropyl]-3-oxo-2,4-dihydro-1H-quinoxaline-6-sulfonamide
@<TRIPOS>ATOM
      1 C1         -4.7251    8.8098   -3.6261 C.3       1 <0>        -0.1536
      2 C2         -3.3097    8.4660   -4.0942 C.3       1 <0>        -0.1253
      3 C3         -3.1970    6.9556   -4.3110 C.3       1 <0>        -0.0998
      4 H1         -3.4947    6.4300   -3.3917 H         1 <0>         0.0753
      5 C4         -4.1164    6.5352   -5.4594 C.3       1 <0>        -0.1441
      6 C5         -1.7508    6.5967   -4.6581 C.3       1 <0>         0.1476
      7 H2         -1.4404    7.0921   -5.5899 H         1 <0>         0.1237
      8 C6         -0.8434    7.0102   -3.5277 C.2       1 <0>         0.5144
      9 O1         -0.3655    8.1250   -3.5196 O.2       1 <0>        -0.5181
     10 N1         -0.5568    6.1560   -2.5269 N.am      1 <0>        -0.6681
     11 C7         -1.0563    4.8481   -2.5389 C.ar      1 <0>         0.0816
     12 C8         -1.0218    4.0656   -1.3963 C.ar      1 <0>        -0.0278
     13 C9         -1.5070    2.7710   -1.4335 C.ar      1 <0>        -0.6774
     14 C10        -2.0369    2.2564   -2.6025 C.ar      1 <0>         0.0072
     15 C11        -2.0827    3.0334   -3.7466 C.ar      1 <0>        -0.1690
     16 C12        -1.5959    4.3279   -3.7168 C.ar      1 <0>         0.2309
     17 N2         -1.6383    5.1439   -4.8560 N.pl3     1 <0>        -0.7533
     18 S1         -1.4563    1.7742    0.0186 S.o2      1 <0>         2.6395
     19 O2         -2.4724    0.7917   -0.1276 O.2       1 <0>        -0.9529
     20 O3         -1.4135    2.6674    1.1230 O.2       1 <0>        -0.9888
     21 N3         -0.0111    0.9658    0.0074 N.pl3     1 <0>        -1.1634
     22 H3         -4.8061    9.8957   -3.4702 H         1 <0>         0.0580
     23 H4         -4.9360    8.2870   -2.6815 H         1 <0>         0.0529
     24 H5         -5.4508    8.4939   -4.3900 H         1 <0>         0.0585
     25 H6         -3.0988    8.9888   -5.0388 H         1 <0>         0.0691
     26 H7         -2.5840    8.7820   -3.3303 H         1 <0>         0.0695
     27 H8         -4.0354    5.4493   -5.6152 H         1 <0>         0.0597
     28 H9         -3.8186    7.0608   -6.3787 H         1 <0>         0.0584
     29 H10        -5.1562    6.7932   -5.2099 H         1 <0>         0.0648
     30 H11         0.0757    6.4833   -1.6886 H         1 <0>         0.4382
     31 H12        -0.6131    4.4642   -0.4795 H         1 <0>         0.1455
     32 H13        -2.4163    1.2455   -2.6226 H         1 <0>         0.1461
     33 H14        -2.4972    2.6309   -4.6591 H         1 <0>         0.1406
     34 H15        -1.5902    4.7296   -5.8738 H         1 <0>         0.4387
     35 H16         0.0599    0.3294    0.9018 H         1 <0>         0.4132
     36 H17         0.8152    1.6919    0.0075 H         1 <0>         0.4082
@<TRIPOS>BOND
     1    1    2 1
     2    1   22 1
     3    1   23 1
     4    1   24 1
     5    2    3 1
     6    2   25 1
     7    2   26 1
     8    3    4 1
     9    3    5 1
    10    3    6 1
    11    5   27 1
    12    5   28 1
    13    5   29 1
    14    6    7 1
    15    6   17 1
    16    6    8 1
    17    8    9 2
    18    8   10 am
    19   10   11 1
    20   10   30 1
    21   11   16 ar
    22   11   12 ar
    23   12   13 ar
    24   12   31 1
    25   13   14 ar
    26   13   18 1
    27   14   15 ar
    28   14   32 1
    29   15   16 ar
    30   15   33 1
    31   16   17 1
    32   17   34 1
    33   18   19 2
    34   18   20 2
    35   18   21 1
    36   21   35 1
    37   21   36 1
