@<TRIPOS>MOLECULE
ZINC13065155
   72    75     0     0     0
SMALL
USER_CHARGES
ethyl 2-[5-[(1S)-1-[(7,8-dimethyl-2-oxo-1H-quinolin-3-yl)methyl-(p-tolylmethyl)amino]propyl]tetrazol-1-yl]acetate
@<TRIPOS>ATOM
      1 C1         -4.3511    0.5485   -1.3013 C.3       1 <0>        -0.1668
      2 C2         -4.2094    1.7827   -0.4082 C.3       1 <0>        -0.1454
      3 C3         -3.1517    2.7189   -0.9960 C.3       1 <0>         0.1249
      4 H1         -3.4025    2.9453   -2.0323 H         1 <0>         0.1516
      5 C4         -3.1125    3.9966   -0.1980 C.2       1 <0>         0.1442
      6 N1         -2.5855    4.1610    0.9908 N.2       1 <0>        -0.2760
      7 N2         -2.7521    5.3918    1.3332 N.2       1 <0>        -0.0380
      8 N3         -3.3717    6.0169    0.3937 N.2       1 <0>        -0.0368
      9 N4         -3.6067    5.1920   -0.5701 N.pl3     1 <0>        -0.2784
     10 C5         -4.2869    5.4981   -1.8310 C.3       1 <0>         0.1067
     11 C6         -5.7752    5.3482   -1.6482 C.2       1 <0>         0.4483
     12 O1         -6.2219    5.0194   -0.5748 O.2       1 <0>        -0.4784
     13 O2         -6.6046    5.5799   -2.6779 O.3       1 <0>        -0.3434
     14 C7         -8.0257    5.4161   -2.4294 C.3       1 <0>         0.0643
     15 C8         -8.8058    5.7210   -3.7098 C.3       1 <0>        -0.1565
     16 C9         -0.8448    2.8163   -1.7251 C.3       1 <0>         0.0370
     17 C10        -1.1224    2.6317   -3.1948 C.ar      1 <0>        -0.1674
     18 C11        -0.6153    1.5318   -3.8612 C.ar      1 <0>        -0.0850
     19 C12        -0.8736    1.3602   -5.2083 C.ar      1 <0>        -0.1097
     20 C13        -1.6309    2.2935   -5.8912 C.ar      1 <0>        -0.0413
     21 C14        -2.1339    3.3959   -5.2259 C.ar      1 <0>        -0.1119
     22 C15        -1.8793    3.5652   -3.8778 C.ar      1 <0>        -0.1018
     23 C16        -1.9085    2.1089   -7.3609 C.3       1 <0>        -0.1316
     24 C17        -1.3900    1.8970    0.4475 C.3       1 <0>         0.0568
     25 C18        -0.2859    0.8726    0.4985 C.2       1 <0>        -0.2774
     26 C19         1.0092    1.2732    0.4662 C.2       1 <0>         0.0612
     27 C20         2.0582    0.2528    0.5107 C.ar      1 <0>        -0.1588
     28 C21         3.4117    0.6047    0.4815 C.ar      1 <0>        -0.0443
     29 C22         4.3663   -0.3714    0.5245 C.ar      1 <0>        -0.1405
     30 C23         4.0051   -1.7100    0.5979 C.ar      1 <0>        -0.0040
     31 C24         2.6779   -2.0798    0.6288 C.ar      1 <0>        -0.1340
     32 C25         1.6881   -1.1032    0.5856 C.ar      1 <0>         0.2055
     33 N5          0.3528   -1.4446    0.6156 N.am      1 <0>        -0.6191
     34 H2          0.0996   -2.3796    0.6672 H         1 <0>         0.4240
     35 C26        -0.6035   -0.5004    0.5739 C.2       1 <0>         0.5444
     36 O3         -1.7741   -0.8388    0.6022 O.2       1 <0>        -0.5374
     37 C27         2.3003   -3.5364    0.7096 C.3       1 <0>        -0.1244
     38 C28         5.0756   -2.7697    0.6448 C.3       1 <0>        -0.1343
     39 H3         -5.1594   -0.0798   -0.9272 H         1 <0>         0.0932
     40 H4         -4.5763    0.8616   -2.3207 H         1 <0>         0.0693
     41 H5         -3.4184   -0.0156   -1.2921 H         1 <0>         0.0633
     42 H6         -3.9060    1.4743    0.5923 H         1 <0>         0.1079
     43 H7         -5.1654    2.3033   -0.3535 H         1 <0>         0.1139
     44 H8         -4.0585    6.5217   -2.1279 H         1 <0>         0.1729
     45 H9         -3.9447    4.8106   -2.6046 H         1 <0>         0.1506
     46 H10        -8.2244    4.3905   -2.1184 H         1 <0>         0.0776
     47 H11        -8.3382    6.1017   -1.6417 H         1 <0>         0.0797
     48 H12        -8.6072    6.7466   -4.0208 H         1 <0>         0.0723
     49 H13        -8.4934    5.0354   -4.4975 H         1 <0>         0.0703
     50 H14        -9.8727    5.5980   -3.5232 H         1 <0>         0.0899
     51 H15        -0.9077    3.8750   -1.4737 H         1 <0>         0.1302
     52 H16         0.1545    2.4469   -1.4949 H         1 <0>         0.1402
     53 H17        -0.0203    0.8048   -3.3285 H         1 <0>         0.1309
     54 H18        -0.4809    0.4988   -5.7280 H         1 <0>         0.1379
     55 H19        -2.7256    4.1251   -5.7595 H         1 <0>         0.1393
     56 H20        -2.2720    4.4267   -3.3581 H         1 <0>         0.1195
     57 H21        -1.1225    2.5907   -7.9424 H         1 <0>         0.0846
     58 H22        -1.9333    1.0447   -7.5951 H         1 <0>         0.0768
     59 H23        -2.8705    2.5579   -7.6081 H         1 <0>         0.0770
     60 H24        -2.2269    1.5599    1.0592 H         1 <0>         0.1508
     61 H25        -1.0207    2.8486    0.8296 H         1 <0>         0.1582
     62 H26         1.2613    2.3218    0.4089 H         1 <0>         0.1550
     63 H27         3.7008    1.6438    0.4244 H         1 <0>         0.1421
     64 H28         5.4112   -0.0995    0.5015 H         1 <0>         0.1397
     65 H29         2.2001   -3.9422   -0.2971 H         1 <0>         0.0809
     66 H30         3.0753   -4.0835    1.2464 H         1 <0>         0.0880
     67 H31         1.3522   -3.6372    1.2379 H         1 <0>         0.0641
     68 H32         5.3249   -3.0794   -0.3701 H         1 <0>         0.0864
     69 H33         5.9645   -2.3669    1.1304 H         1 <0>         0.0795
     70 H34         4.7118   -3.6291    1.2079 H         1 <0>         0.0807
     71 N6         -1.8389    2.0410   -0.9534 N.4       1 <0>        -0.3855
     72 H35        -1.9316    1.1079   -1.3715 H         1 <0>         0.4369
@<TRIPOS>BOND
     1    1    2 1
     2    1   39 1
     3    1   40 1
     4    1   41 1
     5    2    3 1
     6    2   42 1
     7    2   43 1
     8    3    4 1
     9    3    5 1
    10    3   71 1
    11    5    9 1
    12    5    6 2
    13    6    7 1
    14    7    8 2
    15    8    9 1
    16    9   10 1
    17   10   11 1
    18   10   44 1
    19   10   45 1
    20   11   12 2
    21   11   13 1
    22   13   14 1
    23   14   15 1
    24   14   46 1
    25   14   47 1
    26   15   48 1
    27   15   49 1
    28   15   50 1
    29   16   17 1
    30   16   51 1
    31   16   52 1
    32   16   71 1
    33   17   22 ar
    34   17   18 ar
    35   18   19 ar
    36   18   53 1
    37   19   20 ar
    38   19   54 1
    39   20   21 ar
    40   20   23 1
    41   21   22 ar
    42   21   55 1
    43   22   56 1
    44   23   57 1
    45   23   58 1
    46   23   59 1
    47   24   25 1
    48   24   60 1
    49   24   61 1
    50   24   71 1
    51   25   35 1
    52   25   26 2
    53   26   27 1
    54   26   62 1
    55   27   32 ar
    56   27   28 ar
    57   28   29 ar
    58   28   63 1
    59   29   30 ar
    60   29   64 1
    61   30   31 ar
    62   30   38 1
    63   31   32 ar
    64   31   37 1
    65   32   33 1
    66   33   34 1
    67   33   35 am
    68   35   36 2
    69   37   65 1
    70   37   66 1
    71   37   67 1
    72   38   68 1
    73   38   69 1
    74   38   70 1
    75   71   72 1
