@<TRIPOS>MOLECULE
ZINC33830233
   48    51     0     0     0
SMALL
USER_CHARGES

@<TRIPOS>ATOM
      1 C1         -0.0173    1.4248    0.0099 C.3       1 <0>         0.0236
      2 O1          0.0021   -0.0041    0.0020 O.3       1 <0>        -0.3071
      3 C2          0.6062   -0.6075   -1.0564 C.ar      1 <0>         0.1093
      4 C3          1.1729    0.1590   -2.0621 C.ar      1 <0>        -0.1958
      5 C4          1.7870   -0.4560   -3.1371 C.ar      1 <0>        -0.0633
      6 C5          1.8376   -1.8356   -3.2119 C.ar      1 <0>        -0.1106
      7 C6          1.2738   -2.6062   -2.2122 C.ar      1 <0>        -0.0931
      8 C7          0.6617   -1.9961   -1.1290 C.ar      1 <0>         0.0750
      9 O2          0.1119   -2.7526   -0.1417 O.3       1 <0>        -0.4850
     10 C8          2.5083   -2.5009   -4.3860 C.3       1 <0>         0.1305
     11 H1          2.0958   -3.4970   -4.5462 H         1 <0>         0.0845
     12 C9          4.0372   -2.5765   -4.1653 C.3       1 <0>        -0.1446
     13 H2          4.3522   -3.4226   -3.5547 H         1 <0>         0.1131
     14 C10         4.5271   -1.2076   -3.6361 C.3       1 <0>         0.0494
     15 O3          5.8191   -1.0406   -4.2564 O.3       1 <0>        -0.3620
     16 C11         5.6997   -1.5155   -5.6070 C.3       1 <0>         0.1313
     17 H3          5.4354   -0.6899   -6.2678 H         1 <0>         0.0834
     18 C12         4.5841   -2.6055   -5.6265 C.3       1 <0>        -0.1447
     19 H4          4.9378   -3.5913   -5.9285 H         1 <0>         0.1128
     20 C13         3.4078   -2.0934   -6.4775 C.3       1 <0>         0.0508
     21 O4          2.3621   -1.6963   -5.5740 O.3       1 <0>        -0.3617
     22 C14         7.0028   -2.1289   -6.0508 C.ar      1 <0>        -0.1138
     23 C15         7.7452   -2.8873   -5.1649 C.ar      1 <0>        -0.0596
     24 C16         8.9411   -3.4521   -5.5672 C.ar      1 <0>        -0.1965
     25 C17         9.3980   -3.2589   -6.8610 C.ar      1 <0>         0.1072
     26 C18         8.6505   -2.4958   -7.7529 C.ar      1 <0>         0.0745
     27 C19         7.4502   -1.9366   -7.3446 C.ar      1 <0>        -0.0955
     28 O5          9.0947   -2.3034   -9.0237 O.3       1 <0>        -0.4847
     29 O6         10.5745   -3.8134   -7.2582 O.3       1 <0>        -0.3075
     30 C20        11.2885   -4.5837   -6.2892 C.3       1 <0>         0.0241
     31 H5          1.0053    1.8021    0.0021 H         1 <0>         0.0575
     32 H6         -0.5445    1.7859   -0.8732 H         1 <0>         0.0571
     33 H7         -0.5275    1.7763    0.9067 H         1 <0>         0.1030
     34 H8          1.1344    1.2368   -2.0063 H         1 <0>         0.1355
     35 H9          2.2280    0.1425   -3.9205 H         1 <0>         0.1363
     36 H10         1.3140   -3.6837   -2.2733 H         1 <0>         0.1378
     37 H11        -0.8162   -2.9794   -0.2906 H         1 <0>         0.3880
     38 H12         3.8484   -0.4126   -3.9453 H         1 <0>         0.0785
     39 H13         4.6236   -1.2292   -2.5506 H         1 <0>         0.0959
     40 H14         3.7270   -1.2391   -7.0745 H         1 <0>         0.0931
     41 H15         3.0482   -2.8895   -7.1295 H         1 <0>         0.0675
     42 H16         7.3902   -3.0387   -4.1562 H         1 <0>         0.1311
     43 H17         9.5196   -4.0436   -4.8729 H         1 <0>         0.1342
     44 H18         6.8662   -1.3474   -8.0361 H         1 <0>         0.1371
     45 H19         8.7927   -2.9738   -9.6517 H         1 <0>         0.3869
     46 H20        11.5354   -3.9538   -5.4346 H         1 <0>         0.0571
     47 H21        10.6685   -5.4172   -5.9592 H         1 <0>         0.0563
     48 H22        12.2062   -4.9675   -6.7348 H         1 <0>         0.1028
@<TRIPOS>BOND
     1    1    2 1
     2    1   31 1
     3    1   32 1
     4    1   33 1
     5    2    3 1
     6    3    8 ar
     7    3    4 ar
     8    4    5 ar
     9    4   34 1
    10    5    6 ar
    11    5   35 1
    12    6    7 ar
    13    6   10 1
    14    7    8 ar
    15    7   36 1
    16    8    9 1
    17    9   37 1
    18   10   11 1
    19   10   21 1
    20   10   12 1
    21   12   13 1
    22   12   18 1
    23   12   14 1
    24   14   15 1
    25   14   38 1
    26   14   39 1
    27   15   16 1
    28   16   17 1
    29   16   18 1
    30   16   22 1
    31   18   19 1
    32   18   20 1
    33   20   21 1
    34   20   40 1
    35   20   41 1
    36   22   27 ar
    37   22   23 ar
    38   23   24 ar
    39   23   42 1
    40   24   25 ar
    41   24   43 1
    42   25   26 ar
    43   25   29 1
    44   26   27 ar
    45   26   28 1
    46   27   44 1
    47   28   45 1
    48   29   30 1
    49   30   46 1
    50   30   47 1
    51   30   48 1
