@<TRIPOS>MOLECULE
ZINC65181897
   48    51     0     0     0
SMALL
USER_CHARGES

@<TRIPOS>ATOM
      1 C1         -0.0669    1.4612    0.0118 C.3       1 <0>         0.0744
      2 N1         -0.0182   -0.0030    0.0030 N.am      1 <0>        -0.6132
      3 C2          0.1212   -0.7388    1.2621 C.3       1 <0>         0.1249
      4 C3         -1.2660   -1.0435    1.8310 C.3       1 <0>        -0.0776
      5 C4         -1.1227   -1.8004    3.1262 C.2       1 <0>         0.3372
      6 N2          0.0021   -2.1226    3.6535 N.2       1 <0>        -0.3285
      7 O1         -0.1886   -2.8263    4.8666 O.3       1 <0>        -0.1911
      8 C5         -1.6089   -2.9197    5.0600 C.3       1 <0>         0.2852
      9 H1         -1.9231   -3.9633    5.0794 H         1 <0>         0.1206
     10 N3         -2.1807   -2.2273    3.8941 N.pl3     1 <0>        -0.7494
     11 C6         -2.0202   -2.2143    6.3539 C.3       1 <0>         0.0652
     12 H2         -1.7312   -1.1640    6.3168 H         1 <0>         0.1747
     13 C7         -3.5129   -2.3371    6.5624 C.2       1 <0>         0.0296
     14 C8         -3.6764   -3.0021    7.7272 C.ar      1 <0>        -0.1639
     15 C9         -4.8711   -3.4271    8.4685 C.ar      1 <0>         0.0260
     16 C10        -4.7186   -4.0912    9.6343 C.ar      1 <0>        -0.2115
     17 C11        -3.4441   -4.3852   10.1552 C.ar      1 <0>         0.3006
     18 C12        -2.2973   -4.0233    9.5255 C.ar      1 <0>        -0.2721
     19 C13        -2.3466   -3.3226    8.2948 C.ar      1 <0>         0.3509
     20 N4         -1.3954   -2.8702    7.5079 N.pl3     1 <0>        -0.5786
     21 O2         -3.3589   -5.0551   11.3311 O.3       1 <0>        -0.2808
     22 C14        -4.5888   -5.4174   11.9620 C.3       1 <0>         0.0077
     23 C15        -0.1016   -0.6730   -1.1634 C.2       1 <0>         0.6069
     24 O3         -0.1585   -1.8886   -1.1641 O.2       1 <0>        -0.5140
     25 C16        -0.1238    0.0628   -2.4318 C.2       1 <0>        -0.0929
     26 C17        -0.3255   -0.4775   -3.6695 C.2       1 <0>        -0.1084
     27 C18        -0.2670    0.5829   -4.5872 C.2       1 <0>        -0.2241
     28 C19        -0.0351    1.7098   -3.8785 C.2       1 <0>        -0.0014
     29 O4          0.0456    1.3931   -2.5797 O.3       1 <0>        -0.1614
     30 H3          0.9311    1.8590   -0.1723 H         1 <0>         0.0666
     31 H4         -0.7453    1.8068   -0.7682 H         1 <0>         0.0830
     32 H5         -0.4226    1.8071    0.9823 H         1 <0>         0.0769
     33 H6          0.6525   -1.6730    1.0801 H         1 <0>         0.0996
     34 H7          0.6819   -0.1350    1.9757 H         1 <0>         0.0947
     35 H8         -1.7973   -0.1093    2.0130 H         1 <0>         0.1077
     36 H9         -1.8268   -1.6473    1.1175 H         1 <0>         0.1123
     37 H10        -3.1229   -2.0981    3.7031 H         1 <0>         0.4359
     38 H11        -4.2915   -1.9676    5.9115 H         1 <0>         0.2074
     39 H12        -5.8580   -3.2112    8.0865 H         1 <0>         0.1723
     40 H13        -5.5959   -4.4042   10.1809 H         1 <0>         0.1675
     41 H14        -1.3422   -4.2708    9.9649 H         1 <0>         0.1690
     42 H15        -5.1648   -4.5177   12.1785 H         1 <0>         0.0768
     43 H16        -5.1614   -6.0642   11.2972 H         1 <0>         0.0769
     44 H17        -4.3784   -5.9465   12.8914 H         1 <0>         0.1249
     45 H18        -0.4969   -1.5191   -3.8980 H         1 <0>         0.1612
     46 H19        -0.3848    0.5115   -5.6584 H         1 <0>         0.1598
     47 H20         0.0654    2.7028   -4.2911 H         1 <0>         0.2134
     48 H21        -0.4417   -2.9556    7.6633 H         1 <0>         0.4593
@<TRIPOS>BOND
     1    1    2 1
     2    1   30 1
     3    1   31 1
     4    1   32 1
     5    2    3 1
     6    2   23 am
     7    3    4 1
     8    3   33 1
     9    3   34 1
    10    4    5 1
    11    4   35 1
    12    4   36 1
    13    5   10 1
    14    5    6 2
    15    6    7 1
    16    7    8 1
    17    8    9 1
    18    8   10 1
    19    8   11 1
    20   10   37 1
    21   11   12 1
    22   11   20 1
    23   11   13 1
    24   13   14 2
    25   13   38 1
    26   14   19 ar
    27   14   15 ar
    28   15   16 ar
    29   15   39 1
    30   16   17 ar
    31   16   40 1
    32   17   18 ar
    33   17   21 1
    34   18   19 ar
    35   18   41 1
    36   19   20 2
    37   20   48 1
    38   21   22 1
    39   22   42 1
    40   22   43 1
    41   22   44 1
    42   23   24 2
    43   23   25 1
    44   25   29 1
    45   25   26 2
    46   26   27 1
    47   26   45 1
    48   27   28 2
    49   27   46 1
    50   28   29 1
    51   28   47 1
