@<TRIPOS>MOLECULE
ZINC63707956
   60    66     0     0     0
SMALL
USER_CHARGES

@<TRIPOS>ATOM
      1 C1         -0.0163    1.3482    0.0095 C.ar      1 <0>        -0.1566
      2 C2          1.1658    2.1014    0.0022 C.ar      1 <0>         0.0580
      3 C3          2.3912    1.5352   -0.0125 C.ar      1 <0>        -0.2128
      4 C4          2.5288    0.1198   -0.0218 C.ar      1 <0>         0.3291
      5 N1          3.5868   -0.6543   -0.0369 N.pl3     1 <0>        -0.5863
      6 C5          3.1432   -2.0528   -0.0408 C.3       1 <0>         0.0629
      7 C6          1.6315   -2.0084   -0.0255 C.2       1 <0>         0.0717
      8 C7          1.2951   -0.6984   -0.0144 C.ar      1 <0>        -0.1520
      9 C8          0.0021   -0.0041    0.0020 C.ar      1 <0>         0.0038
     10 C9          0.6905   -3.1856   -0.0239 C.3       1 <0>        -0.0659
     11 C10         0.4565   -3.6534   -1.4617 C.3       1 <0>         0.0288
     12 H1          1.4066   -3.8569   -1.9557 H         1 <0>         0.1524
     13 C11        -0.4267   -4.8827   -1.4827 C.2       1 <0>         0.5036
     14 O1         -0.1941   -5.9619   -0.9822 O.2       1 <0>        -0.4152
     15 N2         -1.5301   -4.5230   -2.1774 N.am      1 <0>        -0.5330
     16 C12        -1.4295   -3.2052   -2.5902 C.2       1 <0>         0.4169
     17 N3         -0.3094   -2.6487   -2.2121 N.2       1 <0>        -0.5104
     18 C13        -2.5594   -2.6508   -3.3670 C.ar      1 <0>        -0.1161
     19 C14        -2.5502   -1.3376   -3.8258 C.ar      1 <0>        -0.0461
     20 C15        -3.6255   -0.8620   -4.5473 C.ar      1 <0>        -0.1222
     21 C16        -4.7114   -1.6830   -4.8165 C.ar      1 <0>        -0.0673
     22 C17        -4.7379   -2.9861   -4.3707 C.ar      1 <0>        -0.0919
     23 C18        -3.6602   -3.4892   -3.6377 C.ar      1 <0>         0.1466
     24 N4         -3.6525   -4.7674   -3.1831 N.2       1 <0>        -0.4996
     25 C19        -2.6541   -5.2557   -2.4979 C.2       1 <0>         0.3628
     26 S1         -2.7472   -6.9298   -1.9562 S.3       1 <0>         0.0605
     27 C20        -4.3510   -7.5041   -2.5794 C.3       1 <0>        -0.0946
     28 C21        -4.5593   -8.9423   -2.1802 C.2       1 <0>         0.2388
     29 C22        -5.4185   -9.2303   -1.1880 C.2       1 <0>        -0.3090
     30 C23        -5.6842  -10.5551   -0.7805 C.2       1 <0>         0.5629
     31 O2         -6.4601  -10.7627    0.1351 O.2       1 <0>        -0.5259
     32 N5         -5.0865  -11.5891   -1.3970 N.am      1 <0>        -0.5663
     33 C24        -5.4344  -12.9010   -1.1242 C.2       1 <0>         0.1175
     34 C25        -5.4227  -13.7756   -2.1494 C.2       1 <0>        -0.1974
     35 C26        -5.0646  -13.2872   -3.4894 C.2       1 <0>        -0.0700
     36 C27        -4.4183  -12.1301   -3.6279 C.2       1 <0>        -0.2312
     37 C28        -4.0581  -11.3186   -2.4124 C.3       1 <0>         0.4122
     38 H2         -3.1076  -11.6952   -2.0345 H         1 <0>         0.0903
     39 N6         -3.8734   -9.9253   -2.8400 N.pl3     1 <0>        -0.7100
     40 H3         -0.9665    1.8612    0.0259 H         1 <0>         0.1564
     41 H4          1.0933    3.1789    0.0083 H         1 <0>         0.1602
     42 H5          3.2717    2.1606   -0.0175 H         1 <0>         0.1599
     43 H6          3.4952   -2.5561   -0.9413 H         1 <0>         0.1724
     44 H7          3.5129   -2.5667    0.8465 H         1 <0>         0.1748
     45 H8         -0.9210   -0.5647    0.0081 H         1 <0>         0.1549
     46 H9          1.1268   -3.9987    0.5563 H         1 <0>         0.1324
     47 H10        -0.2596   -2.8905    0.4214 H         1 <0>         0.1143
     48 H11        -1.7074   -0.6950   -3.6184 H         1 <0>         0.1409
     49 H12        -3.6224    0.1571   -4.9050 H         1 <0>         0.1406
     50 H13        -5.5456   -1.2958   -5.3826 H         1 <0>         0.1431
     51 H14        -5.5884   -3.6159   -4.5862 H         1 <0>         0.1467
     52 H15        -5.1463   -6.8907   -2.1559 H         1 <0>         0.1338
     53 H16        -4.3689   -7.4226   -3.6662 H         1 <0>         0.1241
     54 H17        -5.9234   -8.4192   -0.6842 H         1 <0>         0.1561
     55 H18        -5.7050  -13.2122   -0.1261 H         1 <0>         0.1638
     56 H19        -5.6710  -14.8145   -1.9900 H         1 <0>         0.1440
     57 H20        -5.3254  -13.8671   -4.3624 H         1 <0>         0.1298
     58 H21        -4.1526  -11.7746   -4.6125 H         1 <0>         0.1300
     59 H22        -3.2755   -9.7065   -3.5718 H         1 <0>         0.4270
     60 H23         4.5087   -0.3528   -0.0446 H         1 <0>         0.4557
@<TRIPOS>BOND
     1    1    9 ar
     2    1    2 ar
     3    1   40 1
     4    2    3 ar
     5    2   41 1
     6    3    4 ar
     7    3   42 1
     8    4    8 ar
     9    4    5 2
    10    5    6 1
    11    5   60 1
    12    6    7 1
    13    6   43 1
    14    6   44 1
    15    7    8 2
    16    7   10 1
    17    8    9 ar
    18    9   45 1
    19   10   11 1
    20   10   46 1
    21   10   47 1
    22   11   12 1
    23   11   17 1
    24   11   13 1
    25   13   14 2
    26   13   15 am
    27   15   25 1
    28   15   16 1
    29   16   17 2
    30   16   18 1
    31   18   23 ar
    32   18   19 ar
    33   19   20 ar
    34   19   48 1
    35   20   21 ar
    36   20   49 1
    37   21   22 ar
    38   21   50 1
    39   22   23 ar
    40   22   51 1
    41   23   24 1
    42   24   25 2
    43   25   26 1
    44   26   27 1
    45   27   28 1
    46   27   52 1
    47   27   53 1
    48   28   39 1
    49   28   29 2
    50   29   30 1
    51   29   54 1
    52   30   31 2
    53   30   32 am
    54   32   37 1
    55   32   33 1
    56   33   34 2
    57   33   55 1
    58   34   35 1
    59   34   56 1
    60   35   36 2
    61   35   57 1
    62   36   37 1
    63   36   58 1
    64   37   38 1
    65   37   39 1
    66   39   59 1
