@<TRIPOS>MOLECULE
ZINC40396180
   50    54     0     0     0
SMALL
USER_CHARGES

@<TRIPOS>ATOM
      1 C1         -0.0173    1.4248    0.0099 C.3       1 <0>         0.0308
      2 O1          0.0021   -0.0041    0.0020 O.3       1 <0>        -0.3807
      3 C2         -1.2953   -0.6030    0.0112 C.3       1 <0>         0.1370
      4 C3         -1.1560   -2.1035    0.0018 C.2       1 <0>         0.1442
      5 C4         -1.0859   -2.9082   -1.1427 C.2       1 <0>        -0.1253
      6 C5         -0.9613   -4.2315   -0.7138 C.2       1 <0>         0.2011
      7 N1         -0.8554   -5.3959   -1.3661 N.2       1 <0>        -0.1711
      8 N2         -0.7480   -6.5205   -0.7481 N.2       1 <0>        -0.0904
      9 C6         -0.7373   -6.5760    0.5903 C.2       1 <0>        -0.1077
     10 C7         -0.8447   -5.3908    1.3377 C.2       1 <0>         0.2807
     11 N3         -0.9585   -4.2005    0.6615 N.pl3     1 <0>        -0.3010
     12 N4         -1.0748   -2.8682    1.0630 N.2       1 <0>        -0.2551
     13 C8         -0.8317   -5.4631    2.7383 C.2       1 <0>        -0.2223
     14 C9         -0.7172   -6.6589    3.3547 C.2       1 <0>         0.1873
     15 N5         -0.6114   -7.8238    2.6621 N.am      1 <0>        -0.5158
     16 C10        -0.6156   -7.8432    1.3127 C.2       1 <0>         0.5785
     17 O2         -0.5203   -8.8963    0.7068 O.2       1 <0>        -0.4734
     18 C11        -0.4897   -9.0856    3.3965 C.3       1 <0>         0.0959
     19 C12        -1.8835   -9.6594    3.6591 C.3       1 <0>        -0.0822
     20 C13        -1.7583  -10.9573    4.4145 C.2       1 <0>         0.0568
     21 C14        -1.5461  -12.1771    3.8849 C.2       1 <0>         0.0176
     22 N6         -1.4979  -13.0635    4.8904 N.pl3     1 <0>        -0.4726
     23 C15        -1.6723  -12.4392    6.0231 C.cat     1 <0>         0.3120
     24 N7         -1.8325  -11.1221    5.7713 N.pl3     1 <0>        -0.5108
     25 H1         -1.9756  -10.4236    6.4290 H         1 <0>         0.4656
     26 C16        -1.1355   -2.4418   -2.5483 C.ar      1 <0>        -0.0092
     27 C17        -2.2896   -1.8363   -3.0444 C.ar      1 <0>        -0.0919
     28 C18        -2.3303   -1.4039   -4.3539 C.ar      1 <0>        -0.1074
     29 C19        -1.2283   -1.5707   -5.1753 C.ar      1 <0>        -0.0276
     30 C20        -0.0799   -2.1712   -4.6879 C.ar      1 <0>        -0.1050
     31 C21        -0.0261   -2.6017   -3.3781 C.ar      1 <0>        -0.0750
     32 Cl1        -1.2867   -1.0254   -6.8223 Cl        1 <0>        -0.0634
     33 H2          1.0053    1.8021    0.0021 H         1 <0>         0.0942
     34 H3         -0.5445    1.7859   -0.8732 H         1 <0>         0.0495
     35 H4         -0.5275    1.7763    0.9067 H         1 <0>         0.0476
     36 H5         -1.8320   -0.2936    0.9080 H         1 <0>         0.0790
     37 H6         -1.8490   -0.2840   -0.8718 H         1 <0>         0.0858
     38 H7         -0.9131   -4.5601    3.3252 H         1 <0>         0.1765
     39 H8         -0.7090   -6.6909    4.4342 H         1 <0>         0.1860
     40 H9          0.0900   -9.7952    2.8061 H         1 <0>         0.1183
     41 H10         0.0142   -8.9061    4.3462 H         1 <0>         0.1063
     42 H11        -2.4632   -8.9498    4.2495 H         1 <0>         0.1066
     43 H12        -2.3873   -9.8389    2.7093 H         1 <0>         0.1247
     44 H13        -1.4342  -12.4023    2.8345 H         1 <0>         0.2282
     45 H14        -1.6826  -12.8991    7.0002 H         1 <0>         0.2684
     46 H15        -3.1501   -1.7063   -2.4047 H         1 <0>         0.1320
     47 H16        -3.2236   -0.9348   -4.7392 H         1 <0>         0.1384
     48 H17         0.7768   -2.2992   -5.3329 H         1 <0>         0.1385
     49 H18         0.8718   -3.0656   -2.9975 H         1 <0>         0.1306
     50 H19        -1.3562  -14.0179    4.7914 H         1 <0>         0.4696
@<TRIPOS>BOND
     1    1    2 1
     2    1   33 1
     3    1   34 1
     4    1   35 1
     5    2    3 1
     6    3    4 1
     7    3   36 1
     8    3   37 1
     9    4   12 2
    10    4    5 1
    11    5    6 2
    12    5   26 1
    13    6   11 1
    14    6    7 1
    15    7    8 2
    16    8    9 1
    17    9   16 1
    18    9   10 2
    19   10   11 1
    20   10   13 1
    21   11   12 1
    22   13   14 2
    23   13   38 1
    24   14   15 1
    25   14   39 1
    26   15   16 am
    27   15   18 1
    28   16   17 2
    29   18   19 1
    30   18   40 1
    31   18   41 1
    32   19   20 1
    33   19   42 1
    34   19   43 1
    35   20   24 1
    36   20   21 2
    37   21   22 1
    38   21   44 1
    39   22   23 2
    40   22   50 1
    41   23   24 1
    42   23   45 1
    43   24   25 1
    44   26   31 ar
    45   26   27 ar
    46   27   28 ar
    47   27   46 1
    48   28   29 ar
    49   28   47 1
    50   29   30 ar
    51   29   32 1
    52   30   31 ar
    53   30   48 1
    54   31   49 1
