@<TRIPOS>MOLECULE
ZINC38828097
   57    60     0     0     0
SMALL
USER_CHARGES

@<TRIPOS>ATOM
      1 C1         -1.2848    1.1897    0.1860 C.3       1 <0>        -0.1178
      2 C2         -0.6119   -0.1550    0.0858 C.ar      1 <0>        -0.1108
      3 C3         -0.6063   -0.8375   -1.1152 C.ar      1 <0>        -0.0358
      4 C4          0.0109   -2.0712   -1.2079 C.ar      1 <0>        -0.0633
      5 C5          0.6243   -2.6260   -0.0995 C.ar      1 <0>        -0.0394
      6 C6          0.6226   -1.9486    1.1039 C.ar      1 <0>        -0.1194
      7 C7          0.0080   -0.7066    1.1990 C.ar      1 <0>         0.2020
      8 N1          0.0087   -0.0154    2.4156 N.am      1 <0>        -0.6721
      9 C8         -0.0703   -0.6950    3.5768 C.2       1 <0>         0.5164
     10 O1         -0.0615   -1.9078    3.5715 O.2       1 <0>        -0.4943
     11 C9         -0.1694    0.0521    4.8819 C.3       1 <0>        -0.0177
     12 H1         -1.0658    0.6722    4.8781 H         1 <0>         0.1347
     13 C10         1.0641    0.9402    5.0557 C.3       1 <0>        -0.1367
     14 C11         2.2645    0.0842    5.3641 C.2       1 <0>         0.5298
     15 O2          3.3467    0.3808    4.9046 O.2       1 <0>        -0.4978
     16 N2          2.1487   -1.0046    6.1435 N.am      1 <0>        -0.6392
     17 C12         0.9106   -1.4272    6.5954 C.2       1 <0>         0.4913
     18 C13        -0.2452   -0.9317    6.0182 C.2       1 <0>        -0.3588
     19 C14        -1.4848   -1.3573    6.5054 C.2       1 <0>         0.5731
     20 O3         -2.5227   -0.9299    6.0254 O.2       1 <0>        -0.5343
     21 N3         -1.5106   -2.2511    7.5174 N.am      1 <0>        -0.6561
     22 H2         -2.3597   -2.5479    7.8806 H         1 <0>         0.4157
     23 C15        -0.3459   -2.7359    8.0276 C.2       1 <0>         0.6773
     24 N4          0.8222   -2.3352    7.5738 N.2       1 <0>        -0.6116
     25 N5         -0.3908   -3.6611    9.0361 N.pl3     1 <0>        -0.5807
     26 C16        -1.6736   -4.2236    9.4794 C.3       1 <0>         0.1078
     27 C17        -1.5861   -5.7522    9.4275 C.3       1 <0>        -0.1177
     28 C18        -0.3793   -6.2181   10.2453 C.3       1 <0>        -0.1106
     29 C19         0.9024   -5.6400    9.6411 C.3       1 <0>        -0.1301
     30 C20         0.8436   -4.1148    9.6913 C.3       1 <0>         0.1255
     31 C21        -0.3097   -7.7233   10.2246 C.2       1 <0>         0.5207
     32 O4         -1.1430   -8.3606    9.6159 O.2       1 <0>        -0.5377
     33 N6          0.6784   -8.3613   10.8825 N.am      1 <0>        -0.8544
     34 N7          0.0146   -2.8001   -2.4962 N.pl3     1 <0>         0.0368
     35 O5         -0.5216   -2.3165   -3.4659 O.2       1 <0>        -0.1609
     36 O6          0.5539   -3.8790   -2.5788 O.3       1 <0>        -0.1607
     37 H3         -0.5665    1.9741   -0.0522 H         1 <0>         0.0819
     38 H4         -2.1166    1.2331   -0.5171 H         1 <0>         0.0817
     39 H5         -1.6581    1.3345    1.1998 H         1 <0>         0.0734
     40 H6         -1.0848   -0.4071   -1.9825 H         1 <0>         0.1578
     41 H7          1.1049   -3.5902   -0.1750 H         1 <0>         0.1562
     42 H8          1.1015   -2.3824    1.9692 H         1 <0>         0.1600
     43 H9          0.0660    0.9529    2.4233 H         1 <0>         0.4173
     44 H10         1.2424    1.4975    4.1361 H         1 <0>         0.1161
     45 H11         0.8959    1.6383    5.8757 H         1 <0>         0.1282
     46 H12         2.9438   -1.5013    6.3925 H         1 <0>         0.4206
     47 H13        -1.8793   -3.9039   10.5010 H         1 <0>         0.0927
     48 H14        -2.4705   -3.8807    8.8195 H         1 <0>         0.0855
     49 H15        -2.4964   -6.1831    9.8444 H         1 <0>         0.0956
     50 H16        -1.4709   -6.0750    8.3928 H         1 <0>         0.0816
     51 H17        -0.4832   -5.8737   11.2743 H         1 <0>         0.1059
     52 H18         1.7633   -5.9911   10.2100 H         1 <0>         0.0894
     53 H19         0.9942   -5.9640    8.6044 H         1 <0>         0.0795
     54 H20         1.7071   -3.7000    9.1712 H         1 <0>         0.1150
     55 H21         0.8478   -3.7859   10.7305 H         1 <0>         0.0820
     56 H22         1.3449   -7.8517   11.3694 H         1 <0>         0.4019
     57 H23         0.7232   -9.3302   10.8692 H         1 <0>         0.4044
@<TRIPOS>BOND
     1    1    2 1
     2    1   37 1
     3    1   38 1
     4    1   39 1
     5    2    7 ar
     6    2    3 ar
     7    3    4 ar
     8    3   40 1
     9    4    5 ar
    10    4   34 1
    11    5    6 ar
    12    5   41 1
    13    6    7 ar
    14    6   42 1
    15    7    8 1
    16    8    9 am
    17    8   43 1
    18    9   10 2
    19    9   11 1
    20   11   12 1
    21   11   18 1
    22   11   13 1
    23   13   14 1
    24   13   44 1
    25   13   45 1
    26   14   15 2
    27   14   16 am
    28   16   17 1
    29   16   46 1
    30   17   24 1
    31   17   18 2
    32   18   19 1
    33   19   20 2
    34   19   21 am
    35   21   22 1
    36   21   23 1
    37   23   24 2
    38   23   25 1
    39   25   30 1
    40   25   26 1
    41   26   27 1
    42   26   47 1
    43   26   48 1
    44   27   28 1
    45   27   49 1
    46   27   50 1
    47   28   29 1
    48   28   31 1
    49   28   51 1
    50   29   30 1
    51   29   52 1
    52   29   53 1
    53   30   54 1
    54   30   55 1
    55   31   32 2
    56   31   33 am
    57   33   56 1
    58   33   57 1
    59   34   35 2
    60   34   36 1
