@<TRIPOS>MOLECULE
ZINC67385072
   45    46     0     0     0
SMALL
USER_CHARGES

@<TRIPOS>ATOM
      1 C1          0.9895    1.0154   -2.1326 C.3       1 <0>        -0.1761
      2 C2          0.8464   -0.4537   -1.8291 C.2       1 <0>         0.5103
      3 O1          1.8262   -1.1683   -1.8150 O.2       1 <0>        -0.5428
      4 N1         -0.3705   -0.9736   -1.5734 N.am      1 <0>        -0.7332
      5 C3         -0.5097   -2.4018   -1.2784 C.3       1 <0>         0.1238
      6 C4         -1.9829   -2.7295   -1.0273 C.3       1 <0>        -0.1164
      7 H1         -2.5788   -2.4019   -1.8792 H         1 <0>         0.0858
      8 C5         -2.4585   -2.0087    0.2361 C.3       1 <0>        -0.1169
      9 C6         -3.9407   -2.3095    0.4699 C.3       1 <0>        -0.1371
     10 C7         -4.1257   -3.8165    0.6744 C.3       1 <0>         0.1092
     11 N2         -3.5396   -4.5247   -0.4718 N.pl3     1 <0>        -0.6065
     12 C8         -2.1458   -4.2413   -0.8406 C.3       1 <0>         0.1200
     13 C9         -4.2933   -5.4504   -1.1976 C.ar      1 <0>         0.2690
     14 C10        -3.7612   -6.0366   -2.3405 C.ar      1 <0>        -0.1835
     15 C11        -4.5025   -6.9534   -3.0619 C.ar      1 <0>         0.0013
     16 C12        -5.7760   -7.2933   -2.6528 C.ar      1 <0>        -0.0791
     17 C13        -6.3198   -6.7104   -1.5065 C.ar      1 <0>         0.0110
     18 C14        -5.5695   -5.7888   -0.7751 C.ar      1 <0>        -0.1581
     19 C15        -7.6829   -7.0725   -1.0662 C.2       1 <0>         0.5012
     20 O2         -8.6295   -6.8840   -1.8037 O.2       1 <0>        -0.4536
     21 O3         -7.8759   -7.6115    0.1531 O.3       1 <0>        -0.3450
     22 C16        -9.2200   -7.9372    0.5131 C.3       1 <0>         0.0328
     23 N3         -6.5655   -8.2753   -3.4295 N.pl3     1 <0>         0.0383
     24 O4         -6.0883   -8.7925   -4.4126 O.2       1 <0>        -0.1618
     25 O5         -7.6875   -8.5602   -3.0809 O.3       1 <0>        -0.1534
     26 H2          2.0391    1.2489   -2.3115 H         1 <0>         0.0942
     27 H3          0.4062    1.2617   -3.0199 H         1 <0>         0.0889
     28 H4          0.6268    1.5983   -1.2860 H         1 <0>         0.0887
     29 H5         -1.1542   -0.4021   -1.5847 H         1 <0>         0.4015
     30 H6         -0.1469   -2.9847   -2.1250 H         1 <0>         0.0717
     31 H7          0.0736   -2.6480   -0.3911 H         1 <0>         0.0723
     32 H8         -1.8784   -2.3546    1.0917 H         1 <0>         0.0711
     33 H9         -2.3208   -0.9342    0.1148 H         1 <0>         0.0701
     34 H10        -4.2845   -1.7772    1.3567 H         1 <0>         0.0829
     35 H11        -4.5185   -1.9863   -0.3960 H         1 <0>         0.0706
     36 H12        -3.6227   -4.1253    1.5908 H         1 <0>         0.0770
     37 H13        -5.1885   -4.0482    0.7425 H         1 <0>         0.0882
     38 H14        -1.9025   -4.7528   -1.7719 H         1 <0>         0.0932
     39 H15        -1.4814   -4.5852   -0.0480 H         1 <0>         0.0803
     40 H16        -2.7653   -5.7745   -2.6660 H         1 <0>         0.1535
     41 H17        -4.0838   -7.4051   -3.9491 H         1 <0>         0.1626
     42 H18        -5.9831   -5.3376    0.1147 H         1 <0>         0.1546
     43 H19        -9.2345   -8.3622    1.5167 H         1 <0>         0.1063
     44 H20        -9.8307   -7.0346    0.4919 H         1 <0>         0.0635
     45 H21        -9.6199   -8.6632   -0.1948 H         1 <0>         0.0695
@<TRIPOS>BOND
     1    1    2 1
     2    1   26 1
     3    1   27 1
     4    1   28 1
     5    2    3 2
     6    2    4 am
     7    4    5 1
     8    4   29 1
     9    5    6 1
    10    5   30 1
    11    5   31 1
    12    6    7 1
    13    6   12 1
    14    6    8 1
    15    8    9 1
    16    8   32 1
    17    8   33 1
    18    9   10 1
    19    9   34 1
    20    9   35 1
    21   10   11 1
    22   10   36 1
    23   10   37 1
    24   11   12 1
    25   11   13 1
    26   12   38 1
    27   12   39 1
    28   13   18 ar
    29   13   14 ar
    30   14   15 ar
    31   14   40 1
    32   15   16 ar
    33   15   41 1
    34   16   17 ar
    35   16   23 1
    36   17   18 ar
    37   17   19 1
    38   18   42 1
    39   19   20 2
    40   19   21 1
    41   21   22 1
    42   22   43 1
    43   22   44 1
    44   22   45 1
    45   23   24 2
    46   23   25 1
