@<TRIPOS>MOLECULE
ZINC25518576
   53    56     0     0     0
SMALL
USER_CHARGES
N-[3-(2-amino-2-oxo-ethoxy)phenyl]-2-[(2-oxo-1,3-dihydrobenzimidazol-5-yl)sulfonylamino]benzamide
@<TRIPOS>ATOM
      1 C1         -0.1507    9.4768    0.3437 C.ar      1 <0>        -0.1460
      2 C2          1.0360   10.1689    0.5282 C.ar      1 <0>        -0.0527
      3 C3          2.2428    9.5003    0.5225 C.ar      1 <0>        -0.1921
      4 C4          2.2751    8.1238    0.3356 C.ar      1 <0>         0.2357
      5 C5          1.0756    7.4208    0.1436 C.ar      1 <0>        -0.1700
      6 C6         -0.1386    8.1127    0.1525 C.ar      1 <0>        -0.0592
      7 C7          1.0958    5.9610   -0.0600 C.2       1 <0>         0.5702
      8 O1          2.1546    5.3627   -0.0670 O.2       1 <0>        -0.5175
      9 N1         -0.0589    5.2894   -0.2383 N.am      1 <0>        -0.6795
     10 C8         -0.0504    3.8934   -0.3206 C.ar      1 <0>         0.1924
     11 C9         -0.9653    3.2389   -1.1363 C.ar      1 <0>        -0.1813
     12 C10        -0.9570    1.8602   -1.2171 C.ar      1 <0>        -0.0577
     13 C11        -0.0397    1.1279   -0.4872 C.ar      1 <0>        -0.2269
     14 C12         0.8729    1.7759    0.3332 C.ar      1 <0>         0.1488
     15 C13         0.8716    3.1598    0.4126 C.ar      1 <0>        -0.1534
     16 O2          1.7708    1.0543    1.0543 O.3       1 <0>        -0.2873
     17 C14         1.7185   -0.3674    0.9195 C.3       1 <0>         0.0373
     18 C15         2.7802   -0.9936    1.7865 C.2       1 <0>         0.5197
     19 O3          3.5099   -0.2915    2.4540 O.2       1 <0>        -0.5253
     20 N2          2.9189   -2.3338    1.8200 N.am      1 <0>        -0.8743
     21 N3          3.4883    7.4478    0.3343 N.pl3     1 <0>        -1.0562
     22 S1          4.7091    7.9357    1.3412 S.o2      1 <0>         2.6944
     23 O4          5.7528    6.9808    1.2065 O.2       1 <0>        -0.9432
     24 O5          4.9081    9.3213    1.0966 O.2       1 <0>        -0.9493
     25 C16         4.1095    7.7969    2.9922 C.ar      1 <0>        -0.6728
     26 C17         3.4728    8.8727    3.5871 C.ar      1 <0>        -0.0114
     27 C18         2.9948    8.7718    4.8788 C.ar      1 <0>        -0.1263
     28 C19         3.1633    7.5915    5.5869 C.ar      1 <0>         0.1381
     29 C20         3.8102    6.5083    4.9888 C.ar      1 <0>         0.0602
     30 C21         4.2817    6.6172    3.6894 C.ar      1 <0>         0.0056
     31 N4          3.8285    5.4811    5.9293 N.am      1 <0>        -0.6522
     32 H1          4.2930    4.5156    5.6802 H         1 <0>         0.4715
     33 C22         3.2208    5.9193    7.0479 C.2       1 <0>         0.7023
     34 O6          3.0674    5.2669    8.0636 O.2       1 <0>        -0.5491
     35 N5          2.8087    7.1889    6.8722 N.am      1 <0>        -0.6535
     36 H2          2.2809    7.8850    7.5406 H         1 <0>         0.4689
     37 H3         -1.0900   10.0099    0.3502 H         1 <0>         0.1335
     38 H4          1.0158   11.2383    0.6776 H         1 <0>         0.1374
     39 H5          3.1629   10.0469    0.6674 H         1 <0>         0.1697
     40 H6         -1.0663    7.5785    0.0099 H         1 <0>         0.1291
     41 H7         -1.0082    5.8393   -0.3191 H         1 <0>         0.4364
     42 H8         -1.6830    3.8087   -1.7077 H         1 <0>         0.1287
     43 H9         -1.6689    1.3532   -1.8517 H         1 <0>         0.1312
     44 H10        -0.0362    0.0499   -0.5519 H         1 <0>         0.1286
     45 H11         1.5836    3.6659    1.0477 H         1 <0>         0.1439
     46 H12         0.7283   -0.7293    1.2334 H         1 <0>         0.0942
     47 H13         1.8935   -0.6428   -0.1310 H         1 <0>         0.0949
     48 H14         3.6939   -2.7909    2.4528 H         1 <0>         0.4319
     49 H15         2.2571   -2.9705    1.2145 H         1 <0>         0.4219
     50 H16         3.6383    6.5883   -0.3356 H         1 <0>         0.4692
     51 H17         3.3458    9.7935    3.0371 H         1 <0>         0.1495
     52 H18         2.4953    9.6119    5.3382 H         1 <0>         0.1426
     53 H19         4.7828    5.7815    3.2236 H         1 <0>         0.1496
@<TRIPOS>BOND
     1    1    6 ar
     2    1    2 ar
     3    1   37 1
     4    2    3 ar
     5    2   38 1
     6    3    4 ar
     7    3   39 1
     8    4    5 ar
     9    4   21 1
    10    5    6 ar
    11    5    7 1
    12    6   40 1
    13    7    8 2
    14    7    9 am
    15    9   10 1
    16    9   41 1
    17   10   15 ar
    18   10   11 ar
    19   11   12 ar
    20   11   42 1
    21   12   13 ar
    22   12   43 1
    23   13   14 ar
    24   13   44 1
    25   14   15 ar
    26   14   16 1
    27   15   45 1
    28   16   17 1
    29   17   18 1
    30   17   46 1
    31   17   47 1
    32   18   19 2
    33   18   20 am
    34   20   48 1
    35   20   49 1
    36   21   22 1
    37   21   50 1
    38   22   23 2
    39   22   24 2
    40   22   25 1
    41   25   30 ar
    42   25   26 ar
    43   26   27 ar
    44   26   51 1
    45   27   28 ar
    46   27   52 1
    47   28   35 1
    48   28   29 ar
    49   29   30 ar
    50   29   31 1
    51   30   53 1
    52   31   32 1
    53   31   33 am
    54   33   34 2
    55   33   35 am
    56   35   36 1
