@<TRIPOS>MOLECULE
ZINC39671282
   55    58     0     0     0
SMALL
USER_CHARGES

@<TRIPOS>ATOM
      1 C1         -2.4120   -1.9603    7.2861 C.3       1 <0>        -0.0654
      2 C2         -1.7312   -2.0296    5.9434 C.2       1 <0>         0.1831
      3 N1         -1.2992   -1.0182    5.2450 N.2       1 <0>        -0.2833
      4 N2         -0.7722   -1.4477    4.1526 N.2       1 <0>        -0.2484
      5 C3         -0.8501   -2.7476    4.1168 C.2       1 <0>         0.1235
      6 O1         -1.4532   -3.1460    5.2495 O.3       1 <0>        -0.2258
      7 C4         -0.3505   -3.6408    3.0107 C.3       1 <0>         0.2227
      8 N3          1.0383   -4.0215    3.2801 N.am      1 <0>        -0.7289
      9 C5          1.6963   -4.8232    2.4195 C.2       1 <0>         0.5272
     10 O2          1.1388   -5.2295    1.4219 O.2       1 <0>        -0.5076
     11 C6          3.1249   -5.2148    2.6966 C.3       1 <0>        -0.1116
     12 H1          3.6663   -4.3811    3.1436 H         1 <0>         0.1166
     13 C7          3.8200   -5.6713    1.3943 C.3       1 <0>         0.1170
     14 N4          4.6963   -6.7915    1.8104 N.am      1 <0>        -0.6209
     15 C8          3.8925   -7.5373    2.8083 C.3       1 <0>         0.0988
     16 C9          3.1738   -6.4425    3.6216 C.3       1 <0>        -0.0741
     17 C10         1.7602   -6.8927    3.9774 C.3       1 <0>        -0.1503
     18 C11         1.8349   -8.0779    4.9442 C.3       1 <0>        -0.0073
     19 N5          2.5623   -7.6789    6.1551 N.4       1 <0>        -0.5050
     20 C12         3.9489   -7.3365    5.8162 C.3       1 <0>        -0.0116
     21 C13         3.9636   -6.1199    4.8864 C.3       1 <0>        -0.1359
     22 C14         5.9427   -7.0693    1.3794 C.2       1 <0>         0.5977
     23 O3          6.5105   -6.3023    0.6250 O.2       1 <0>        -0.4914
     24 C15         6.6164   -8.2996    1.8213 C.2       1 <0>        -0.1870
     25 C16         5.9174   -9.4672    2.0376 C.2       1 <0>        -0.2175
     26 S1          7.0885  -10.5677    2.5191 S.3       1 <0>         0.2800
     27 C17         8.5355   -9.5339    2.4533 C.2       1 <0>        -0.1826
     28 C18         8.0436   -8.3429    2.0434 C.2       1 <0>         0.1229
     29 O4          8.8403   -7.2544    1.8570 O.3       1 <0>        -0.2970
     30 C19         9.0411   -6.3970    2.9824 C.3       1 <0>         0.0399
     31 Cl1        10.1796   -9.9541    2.8196 Cl        1 <0>         0.0436
     32 H2         -1.6625   -2.0060    8.0762 H         1 <0>         0.1040
     33 H3         -2.9662   -1.0250    7.3646 H         1 <0>         0.1146
     34 H4         -3.0996   -2.7998    7.3885 H         1 <0>         0.0975
     35 H5         -0.9694   -4.5366    2.9595 H         1 <0>         0.1076
     36 H6         -0.4035   -3.1079    2.0614 H         1 <0>         0.1239
     37 H7          1.4842   -3.6966    4.0779 H         1 <0>         0.4042
     38 H8          3.0816   -6.0152    0.6699 H         1 <0>         0.1027
     39 H9          4.4143   -4.8590    0.9759 H         1 <0>         0.1001
     40 H10         3.1671   -8.1796    2.3090 H         1 <0>         0.0887
     41 H11         4.5416   -8.1266    3.4559 H         1 <0>         0.0881
     42 H12         1.2247   -6.0700    4.4511 H         1 <0>         0.0983
     43 H13         1.2357   -7.1950    3.0710 H         1 <0>         0.1264
     44 H14         0.8261   -8.3911    5.2132 H         1 <0>         0.1411
     45 H15         2.3560   -8.9060    4.4638 H         1 <0>         0.1339
     46 H16         2.1106   -6.8769    6.5684 H         1 <0>         0.4283
     47 H17         4.4986   -7.1032    6.7281 H         1 <0>         0.1414
     48 H18         4.4197   -8.1822    5.3151 H         1 <0>         0.1329
     49 H19         4.9926   -5.8773    4.6209 H         1 <0>         0.1190
     50 H20         3.5078   -5.2692    5.3930 H         1 <0>         0.0975
     51 H21         4.8567   -9.6355    1.9237 H         1 <0>         0.1982
     52 H22         8.0807   -6.0035    3.3154 H         1 <0>         0.0401
     53 H23         9.5025   -6.9623    3.7921 H         1 <0>         0.0504
     54 H24         9.6933   -5.5712    2.6983 H         1 <0>         0.1043
     55 H25         2.5575   -8.4418    6.8155 H         1 <0>         0.4354
@<TRIPOS>BOND
     1    1    2 1
     2    1   32 1
     3    1   33 1
     4    1   34 1
     5    2    6 1
     6    2    3 2
     7    3    4 1
     8    4    5 2
     9    5    6 1
    10    5    7 1
    11    7    8 1
    12    7   35 1
    13    7   36 1
    14    8    9 am
    15    8   37 1
    16    9   10 2
    17    9   11 1
    18   11   12 1
    19   11   16 1
    20   11   13 1
    21   13   14 1
    22   13   38 1
    23   13   39 1
    24   14   15 1
    25   14   22 am
    26   15   16 1
    27   15   40 1
    28   15   41 1
    29   16   21 1
    30   16   17 1
    31   17   18 1
    32   17   42 1
    33   17   43 1
    34   18   19 1
    35   18   44 1
    36   18   45 1
    37   19   20 1
    38   19   46 1
    39   19   55 1
    40   20   21 1
    41   20   47 1
    42   20   48 1
    43   21   49 1
    44   21   50 1
    45   22   23 2
    46   22   24 1
    47   24   28 1
    48   24   25 2
    49   25   26 1
    50   25   51 1
    51   26   27 1
    52   27   28 2
    53   27   31 1
    54   28   29 1
    55   29   30 1
    56   30   52 1
    57   30   53 1
    58   30   54 1
