@<TRIPOS>MOLECULE
ZINC09209546
   65    68     0     0     0
SMALL
USER_CHARGES
ethyl (E)-(4-methyl-3-nitro-benzoyl)imino-oxo-pentyl-BLAHcarboxylate
@<TRIPOS>ATOM
      1 C1         -5.2193    8.2561   -1.2841 C.3       1 <0>        -0.1564
      2 C2         -5.6808    6.8472   -1.6624 C.3       1 <0>        -0.1202
      3 C3         -5.2143    5.8542   -0.5960 C.3       1 <0>        -0.1164
      4 C4         -5.6758    4.4454   -0.9743 C.3       1 <0>        -0.1545
      5 C5         -5.2093    3.4524    0.0921 C.3       1 <0>         0.0994
      6 N1         -5.5212    2.0881   -0.3412 N.pl3     1 <0>        -0.4494
      7 C6         -6.6918    1.8385   -1.0105 C.2       1 <0>         0.4907
      8 C7         -6.9995    0.5196   -1.4259 C.2       1 <0>        -0.3380
      9 C8         -6.1133   -0.5266   -1.1613 C.2       1 <0>         0.1232
     10 C9         -4.9249   -0.2521   -0.4838 C.2       1 <0>        -0.2653
     11 C10        -4.6402    1.0754   -0.0788 C.2       1 <0>         0.5359
     12 N2         -3.5073    1.3386    0.5678 N.2       1 <0>        -0.6570
     13 C11        -2.8178    0.3462    1.1391 C.2       1 <0>         0.5641
     14 O1         -3.3747   -0.4198    1.9062 O.2       1 <0>        -0.5140
     15 C12        -1.3770    0.1773    0.8397 C.ar      1 <0>        -0.1090
     16 C13        -0.7357    1.0554   -0.0343 C.ar      1 <0>        -0.0045
     17 C14         0.6051    0.8895   -0.3135 C.ar      1 <0>        -0.1375
     18 C15         1.3149   -0.1421    0.2754 C.ar      1 <0>         0.0127
     19 C16         0.6857   -1.0131    1.1465 C.ar      1 <0>        -0.0602
     20 C17        -0.6550   -0.8572    1.4342 C.ar      1 <0>         0.0037
     21 N3          1.4521   -2.1142    1.7719 N.pl3     1 <0>         0.0389
     22 O2          0.9414   -2.7923    2.6453 O.2       1 <0>        -0.1502
     23 O3          2.5934   -2.3423    1.4130 O.3       1 <0>        -0.1607
     24 C18         2.7793   -0.3176   -0.0340 C.3       1 <0>        -0.1976
     25 C19        -3.9744   -1.3329   -0.1925 C.2       1 <0>         0.5384
     26 O4         -2.8454   -1.2871   -0.6417 O.2       1 <0>        -0.5048
     27 O5         -4.3535   -2.3761    0.5730 O.3       1 <0>        -0.3311
     28 C20        -3.3619   -3.4077    0.8195 C.3       1 <0>         0.0650
     29 C21        -3.9708   -4.5004    1.7005 C.3       1 <0>        -0.1533
     30 C22        -8.2611    0.2916   -2.1323 C.2       1 <0>         0.5580
     31 O6         -8.5763   -0.8213   -2.5125 O.2       1 <0>        -0.4746
     32 N4         -9.0654    1.3582   -2.3499 N.am      1 <0>        -0.4414
     33 C23       -10.2461    1.1738   -3.0050 C.2       1 <0>         0.1113
     34 C24       -11.0767    2.2142   -3.2410 C.2       1 <0>        -0.1647
     35 C25       -10.7278    3.5014   -2.8100 C.2       1 <0>        -0.0021
     36 C26        -9.5493    3.6953   -2.1537 C.2       1 <0>        -0.1485
     37 C27        -8.6960    2.6007   -1.9163 C.2       1 <0>         0.4483
     38 N5         -7.5481    2.8140   -1.2724 N.2       1 <0>        -0.5635
     39 H1         -5.5547    8.9700   -2.0508 H         1 <0>         0.0541
     40 H2         -4.1214    8.2771   -1.2187 H         1 <0>         0.0540
     41 H3         -5.6500    8.5340   -0.3108 H         1 <0>         0.0549
     42 H4         -6.7787    6.8262   -1.7278 H         1 <0>         0.0624
     43 H5         -5.2502    6.5693   -2.6357 H         1 <0>         0.0595
     44 H6         -4.1164    5.8752   -0.5306 H         1 <0>         0.0615
     45 H7         -5.6449    6.1321    0.3773 H         1 <0>         0.0660
     46 H8         -6.7737    4.4244   -1.0397 H         1 <0>         0.1270
     47 H9         -5.2452    4.1675   -1.9476 H         1 <0>         0.0604
     48 H10        -4.1233    3.5522    0.2360 H         1 <0>         0.1148
     49 H11        -5.7257    3.6631    1.0402 H         1 <0>         0.0907
     50 H12        -6.3446   -1.5335   -1.4761 H         1 <0>         0.1591
     51 H13        -1.2886    1.8609   -0.4945 H         1 <0>         0.1481
     52 H14         1.1017    1.5659   -0.9934 H         1 <0>         0.1501
     53 H15        -1.1451   -1.5376    2.1148 H         1 <0>         0.1561
     54 H16         3.1704   -1.1825    0.5219 H         1 <0>         0.1426
     55 H17         3.3280    0.5882    0.2635 H         1 <0>         0.0817
     56 H18         2.9083   -0.4866   -1.1133 H         1 <0>         0.0859
     57 H19        -3.0416   -3.8446   -0.1378 H         1 <0>         0.0677
     58 H20        -2.4931   -2.9667    1.3302 H         1 <0>         0.0704
     59 H21        -3.2195   -5.2819    1.8872 H         1 <0>         0.0832
     60 H22        -4.8395   -4.9414    1.1898 H         1 <0>         0.0661
     61 H23        -4.2911   -4.0634    2.6578 H         1 <0>         0.0708
     62 H24       -10.5215    0.1847   -3.3401 H         1 <0>         0.1903
     63 H25       -12.0090    2.0535   -3.7619 H         1 <0>         0.1691
     64 H26       -11.3892    4.3346   -2.9965 H         1 <0>         0.1630
     65 H27        -9.2715    4.6832   -1.8172 H         1 <0>         0.1755
@<TRIPOS>BOND
     1    1    2 1
     2    1   39 1
     3    1   40 1
     4    1   41 1
     5    2    3 1
     6    2   42 1
     7    2   43 1
     8    3    4 1
     9    3   44 1
    10    3   45 1
    11    4    5 1
    12    4   46 1
    13    4   47 1
    14    5    6 1
    15    5   48 1
    16    5   49 1
    17    6   11 1
    18    6    7 1
    19    7   38 1
    20    7    8 2
    21    8    9 1
    22    8   30 1
    23    9   10 2
    24    9   50 1
    25   10   11 1
    26   10   25 1
    27   11   12 2
    28   12   13 1
    29   13   14 2
    30   13   15 1
    31   15   20 ar
    32   15   16 ar
    33   16   17 ar
    34   16   51 1
    35   17   18 ar
    36   17   52 1
    37   18   19 ar
    38   18   24 1
    39   19   20 ar
    40   19   21 1
    41   20   53 1
    42   21   22 2
    43   21   23 1
    44   24   54 1
    45   24   55 1
    46   24   56 1
    47   25   26 2
    48   25   27 1
    49   27   28 1
    50   28   29 1
    51   28   57 1
    52   28   58 1
    53   29   59 1
    54   29   60 1
    55   29   61 1
    56   30   31 2
    57   30   32 am
    58   32   37 1
    59   32   33 1
    60   33   34 2
    61   33   62 1
    62   34   35 1
    63   34   63 1
    64   35   36 2
    65   35   64 1
    66   36   37 1
    67   36   65 1
    68   37   38 2
