@<TRIPOS>MOLECULE
ZINC02311435
   57    58     0     0     0
SMALL
USER_CHARGES

@<TRIPOS>ATOM
      1 C1         -0.0187    1.5258    0.0104 C.3       1 <0>        -0.1660
      2 C2          0.0021   -0.0041    0.0020 C.3       1 <0>         0.1178
      3 C3          0.7421   -0.5109    1.2415 C.3       1 <0>        -0.1814
      4 N1         -1.3723   -0.5112    0.0124 N.pl3     1 <0>        -0.6539
      5 C4         -1.6497   -1.7635   -0.4968 C.ar      1 <0>         0.7006
      6 N2         -0.6688   -2.5120   -0.9917 N.ar      1 <0>        -0.6375
      7 C5         -0.9359   -3.7183   -1.4822 C.ar      1 <0>         0.7002
      8 N3         -2.1838   -4.1764   -1.4774 N.ar      1 <0>        -0.6102
      9 C6         -3.1646   -3.4281   -0.9821 C.ar      1 <0>         0.6820
     10 N4         -2.8968   -2.2237   -0.4874 N.ar      1 <0>        -0.6270
     11 N5         -4.4602   -3.9037   -0.9771 N.pl3     1 <0>        -0.4102
     12 N6         -5.4939   -3.1151   -0.4551 N.pl3     1 <0>        -0.4694
     13 C7         -6.7893   -3.5907   -0.4501 C.ar      1 <0>         0.6489
     14 N7         -7.7711   -2.8411    0.0399 N.ar      1 <0>        -0.6351
     15 C8         -9.0170   -3.3024    0.0430 C.ar      1 <0>         0.6565
     16 N8         -9.2780   -4.5131   -0.4444 N.ar      1 <0>        -0.5976
     17 C9         -8.2985   -5.2569   -0.9314 C.ar      1 <0>         0.4803
     18 N9         -7.0575   -4.7980   -0.9409 N.ar      1 <0>        -0.6380
     19 Cl1        -8.6431   -6.8355   -1.5662 Cl        1 <0>         0.0572
     20 N10       -10.0393   -2.5273    0.5513 N.pl3     1 <0>        -0.6597
     21 C10       -11.4129   -3.0368    0.5543 C.3       1 <0>         0.1768
     22 C11       -11.4780   -4.3228    1.3807 C.3       1 <0>        -0.1667
     23 C12       -12.3441   -1.9890    1.1673 C.3       1 <0>        -0.1584
     24 C13       -11.8509   -3.3307   -0.8818 C.3       1 <0>        -0.1667
     25 N11         0.0823   -4.4949   -1.9969 N.pl3     1 <0>        -0.6529
     26 C14         1.4575   -3.9899   -2.0026 C.3       1 <0>         0.1181
     27 C15         2.1142   -4.2834   -0.6523 C.3       1 <0>        -0.1815
     28 C16         2.2493   -4.6794   -3.1155 C.3       1 <0>        -0.1662
     29 H1          1.0039    1.9031    0.0027 H         1 <0>         0.0946
     30 H2         -0.5459    1.8868   -0.8726 H         1 <0>         0.0752
     31 H3         -0.5289    1.8773    0.9072 H         1 <0>         0.0788
     32 H4          0.5123   -0.3556   -0.8948 H         1 <0>         0.0871
     33 H5          0.7568   -1.6008    1.2356 H         1 <0>         0.0555
     34 H6          1.7647   -0.1336    1.2338 H         1 <0>         0.0934
     35 H7          0.2319   -0.1594    2.1383 H         1 <0>         0.0817
     36 H8         -2.0874    0.0333    0.3772 H         1 <0>         0.4443
     37 H9         -4.6551   -4.7839   -1.3350 H         1 <0>         0.4680
     38 H10        -5.2990   -2.2349   -0.0972 H         1 <0>         0.4587
     39 H11        -9.8484   -1.6452    0.9066 H         1 <0>         0.4206
     40 H12       -11.1659   -4.1134    2.4039 H         1 <0>         0.0541
     41 H13       -12.5000   -4.7018    1.3830 H         1 <0>         0.0723
     42 H14       -10.8145   -5.0693    0.9441 H         1 <0>         0.0828
     43 H15       -12.2977   -1.0728    0.5785 H         1 <0>         0.0655
     44 H16       -13.3661   -2.3680    1.1695 H         1 <0>         0.0837
     45 H17       -12.0320   -1.7796    2.1904 H         1 <0>         0.0656
     46 H18       -11.1875   -4.0772   -1.3185 H         1 <0>         0.0827
     47 H19       -12.8729   -3.7098   -0.8796 H         1 <0>         0.0723
     48 H20       -11.8045   -2.4146   -1.4706 H         1 <0>         0.0541
     49 H21        -0.1126   -5.3752   -2.3548 H         1 <0>         0.4454
     50 H22         1.4486   -2.9138   -2.1761 H         1 <0>         0.0867
     51 H23         2.1230   -5.3595   -0.4788 H         1 <0>         0.0822
     52 H24         3.1374   -3.9077   -0.6565 H         1 <0>         0.0933
     53 H25         1.5501   -3.7922    0.1405 H         1 <0>         0.0552
     54 H26         1.7815   -4.4703   -4.0775 H         1 <0>         0.0755
     55 H27         3.2725   -4.3037   -3.1197 H         1 <0>         0.0945
     56 H28         2.2582   -5.7555   -2.9420 H         1 <0>         0.0793
     57 H29         0.2418   -2.1777   -0.9952 H         1 <0>         0.4367
@<TRIPOS>BOND
     1    1    2 1
     2    1   29 1
     3    1   30 1
     4    1   31 1
     5    2    3 1
     6    2    4 1
     7    2   32 1
     8    3   33 1
     9    3   34 1
    10    3   35 1
    11    4    5 1
    12    4   36 1
    13    5   10 ar
    14    5    6 ar
    15    6    7 ar
    16    6   57 1
    17    7    8 ar
    18    7   25 1
    19    8    9 ar
    20    9   10 ar
    21    9   11 1
    22   11   12 1
    23   11   37 1
    24   12   13 1
    25   12   38 1
    26   13   18 ar
    27   13   14 ar
    28   14   15 ar
    29   15   16 ar
    30   15   20 1
    31   16   17 ar
    32   17   18 ar
    33   17   19 1
    34   20   21 1
    35   20   39 1
    36   21   22 1
    37   21   23 1
    38   21   24 1
    39   22   40 1
    40   22   41 1
    41   22   42 1
    42   23   43 1
    43   23   44 1
    44   23   45 1
    45   24   46 1
    46   24   47 1
    47   24   48 1
    48   25   26 1
    49   25   49 1
    50   26   27 1
    51   26   28 1
    52   26   50 1
    53   27   51 1
    54   27   52 1
    55   27   53 1
    56   28   54 1
    57   28   55 1
    58   28   56 1
