@<TRIPOS>MOLECULE
ZINC49454854
   31    33     0     0     0
SMALL
USER_CHARGES

@<TRIPOS>ATOM
      1 C1         -0.2242    1.0340   -0.3268 C.3       1 <0>        -0.1783
      2 C2         -0.1340   -0.4683   -0.0510 C.3       1 <0>         0.0927
      3 N1          0.6503   -0.6952    1.1654 N.pl3     1 <0>        -0.4343
      4 C3          1.9683   -1.0431    1.2091 C.2       1 <0>         0.0071
      5 C4          2.3368   -1.1618    2.5026 C.2       1 <0>        -0.2030
      6 C5          1.2114   -0.8787    3.2945 C.2       1 <0>        -0.1483
      7 C6          0.1834   -0.5876    2.4500 C.2       1 <0>         0.0696
      8 C7         -1.1942   -0.2236    2.8481 C.2       1 <0>         0.1676
      9 C8         -2.2271    0.1868    1.9767 C.2       1 <0>        -0.2864
     10 C9         -3.3221    0.4240    2.7247 C.2       1 <0>         0.3102
     11 N2         -3.0020    0.1758    4.0312 N.pl3     1 <0>        -0.3902
     12 N3         -1.6726   -0.2319    4.0796 N.2       1 <0>        -0.2538
     13 C10        -3.9653    0.3371    5.1230 C.3       1 <0>         0.1353
     14 C11        -4.9624    1.4335    4.7404 C.3       1 <0>        -0.1566
     15 C12        -5.4280    1.2799    3.3202 C.2       1 <0>         0.5199
     16 O1         -6.5767    1.5516    3.0415 O.2       1 <0>        -0.5074
     17 N4         -4.5975    0.8464    2.3451 N.am      1 <0>        -0.6453
     18 H1          0.7786    1.4397   -0.4601 H         1 <0>         0.0656
     19 H2         -0.8078    1.2028   -1.2318 H         1 <0>         0.0758
     20 H3         -0.7078    1.5296    0.5150 H         1 <0>         0.0701
     21 H4         -1.1369   -0.8740    0.0823 H         1 <0>         0.0921
     22 H5          0.3495   -0.9639   -0.8928 H         1 <0>         0.0939
     23 H6          2.6089   -1.1980    0.3535 H         1 <0>         0.1668
     24 H7          3.3195   -1.4270    2.8635 H         1 <0>         0.1407
     25 H8          1.1702   -0.8862    4.3737 H         1 <0>         0.1412
     26 H9         -2.1525    0.2919    0.9044 H         1 <0>         0.1604
     27 H10        -4.4969   -0.6009    5.2830 H         1 <0>         0.0946
     28 H11        -3.4402    0.6224    6.0346 H         1 <0>         0.1177
     29 H12        -5.8241    1.3798    5.4059 H         1 <0>         0.1356
     30 H13        -4.4844    2.4063    4.8557 H         1 <0>         0.1173
     31 H14        -4.8773    0.8299    1.4165 H         1 <0>         0.4293
@<TRIPOS>BOND
     1    1    2 1
     2    1   18 1
     3    1   19 1
     4    1   20 1
     5    2    3 1
     6    2   21 1
     7    2   22 1
     8    3    7 1
     9    3    4 1
    10    4    5 2
    11    4   23 1
    12    5    6 1
    13    5   24 1
    14    6    7 2
    15    6   25 1
    16    7    8 1
    17    8   12 2
    18    8    9 1
    19    9   10 2
    20    9   26 1
    21   10   17 1
    22   10   11 1
    23   11   12 1
    24   11   13 1
    25   13   14 1
    26   13   27 1
    27   13   28 1
    28   14   15 1
    29   14   29 1
    30   14   30 1
    31   15   16 2
    32   15   17 am
    33   17   31 1
