@<TRIPOS>MOLECULE
ZINC04879578
   48    51     0     0     0
SMALL
USER_CHARGES
3,6,10,12,12a-pentahydroxy-6-methyl-1,11-dioxo-4,4a,5,5a-tetrahydrotetracene-2-carboxamide
@<TRIPOS>ATOM
      1 C1          2.4918   -2.5951   -0.6403 C.3       1 <0>        -0.1830
      2 C2          1.1770   -2.1278   -0.0130 C.3       1 <0>         0.1825
      3 C3          1.1441   -0.6227    0.0154 C.ar      1 <0>        -0.0666
      4 C4          2.3182    0.0991    0.0049 C.ar      1 <0>        -0.1332
      5 C5          2.2857    1.4838    0.0286 C.ar      1 <0>        -0.0790
      6 C6          1.0798    2.1563    0.0625 C.ar      1 <0>        -0.1522
      7 C7         -0.1118    1.4458    0.0745 C.ar      1 <0>         0.1596
      8 C8         -0.0810    0.0469    0.0521 C.ar      1 <0>        -0.1646
      9 C9         -1.3358   -0.7333    0.0705 C.2       1 <0>         0.4325
     10 O1         -2.3835   -0.2198    0.4199 O.2       1 <0>        -0.4269
     11 C10        -1.2918   -2.1024   -0.3301 C.2       1 <0>        -0.2381
     12 C11        -2.4087   -2.8356   -0.2261 C.2       1 <0>         0.1457
     13 C12        -2.4702   -4.2910   -0.5605 C.3       1 <0>         0.1058
     14 C13        -1.2928   -4.6728   -1.4674 C.3       1 <0>        -0.0670
     15 H1         -1.4078   -4.1877   -2.4367 H         1 <0>         0.1034
     16 C14        -0.0027   -4.1891   -0.8042 C.3       1 <0>        -0.1047
     17 C15         0.0081   -2.6606   -0.8367 C.3       1 <0>        -0.0105
     18 H2          0.1321   -2.3347   -1.8694 H         1 <0>         0.0943
     19 C16        -1.2835   -6.1873   -1.6506 C.3       1 <0>        -0.0808
     20 C17        -2.6194   -6.6593   -2.1544 C.2       1 <0>         0.2545
     21 C18        -3.7727   -5.9295   -1.9973 C.2       1 <0>        -0.3962
     22 C19        -3.7380   -4.6295   -1.3130 C.2       1 <0>         0.4007
     23 O2         -4.6799   -3.8649   -1.3502 O.2       1 <0>        -0.4298
     24 C20        -5.0470   -6.4511   -2.5165 C.2       1 <0>         0.5685
     25 O3         -5.5233   -5.9887   -3.5357 O.2       1 <0>        -0.5119
     26 N1         -5.6863   -7.4412   -1.8626 N.am      1 <0>        -0.8495
     27 O4         -2.6877   -7.8418   -2.7838 O.3       1 <0>        -0.4371
     28 O5         -2.4119   -5.0584    0.6436 O.3       1 <0>        -0.5107
     29 O6         -3.5341   -2.2296    0.2020 O.3       1 <0>        -0.4169
     30 O7         -1.2986    2.1027    0.1020 O.3       1 <0>        -0.4837
     31 O8          1.0839   -2.6294    1.3219 O.3       1 <0>        -0.5402
     32 H3          3.3288   -2.2237   -0.0490 H         1 <0>         0.0685
     33 H4          2.5172   -3.6846   -0.6616 H         1 <0>         0.0763
     34 H5          2.5663   -2.2100   -1.6573 H         1 <0>         0.0732
     35 H6          3.2667   -0.4165   -0.0222 H         1 <0>         0.1357
     36 H7          3.2104    2.0417    0.0205 H         1 <0>         0.1334
     37 H8          1.0644    3.2361    0.0793 H         1 <0>         0.1360
     38 H9          0.8583   -4.5745   -1.3504 H         1 <0>         0.0876
     39 H10         0.0317   -4.5351    0.2288 H         1 <0>         0.1014
     40 H11        -0.5101   -6.4593   -2.3689 H         1 <0>         0.1153
     41 H12        -1.0689   -6.6651   -0.6947 H         1 <0>         0.1300
     42 H13        -5.3456   -7.7597   -1.0121 H         1 <0>         0.4052
     43 H14        -6.4871   -7.8352   -2.2425 H         1 <0>         0.4087
     44 H15        -3.6327   -8.0190   -3.0586 H         1 <0>         0.4075
     45 H16        -3.1275   -4.8689    1.2657 H         1 <0>         0.3883
     46 H17        -4.2807   -2.8943    0.2296 H         1 <0>         0.3910
     47 H18        -1.6298    2.2792    0.9932 H         1 <0>         0.3988
     48 H19         1.8006   -2.3384    1.9023 H         1 <0>         0.3782
@<TRIPOS>BOND
     1    1    2 1
     2    1   32 1
     3    1   33 1
     4    1   34 1
     5    2   17 1
     6    2    3 1
     7    2   31 1
     8    3    8 ar
     9    3    4 ar
    10    4    5 ar
    11    4   35 1
    12    5    6 ar
    13    5   36 1
    14    6    7 ar
    15    6   37 1
    16    7    8 ar
    17    7   30 1
    18    8    9 1
    19    9   10 2
    20    9   11 1
    21   11   17 1
    22   11   12 2
    23   12   13 1
    24   12   29 1
    25   13   22 1
    26   13   14 1
    27   13   28 1
    28   14   15 1
    29   14   16 1
    30   14   19 1
    31   16   17 1
    32   16   38 1
    33   16   39 1
    34   17   18 1
    35   19   20 1
    36   19   40 1
    37   19   41 1
    38   20   21 2
    39   20   27 1
    40   21   22 1
    41   21   24 1
    42   22   23 2
    43   24   25 2
    44   24   26 am
    45   26   42 1
    46   26   43 1
    47   27   44 1
    48   28   45 1
    49   29   46 1
    50   30   47 1
    51   31   48 1
