@<TRIPOS>MOLECULE
ZINC10339283
   51    54     0     0     0
SMALL
USER_CHARGES
methyl methyl-(3-nitrophenyl)-dioxo-BLAHcarboxylate
@<TRIPOS>ATOM
      1 C1         -1.6722    4.8527    4.9367 C.3       1 <0>        -0.1490
      2 C2         -0.9748    4.3385    3.6757 C.3       1 <0>        -0.0830
      3 H1         -1.1300    3.2636    3.5830 H         1 <0>         0.0851
      4 C3         -1.5439    5.0491    2.4460 C.3       1 <0>        -0.1006
      5 C4         -0.8230    4.5751    1.2069 C.2       1 <0>         0.2301
      6 C5          0.4654    4.1832    1.2606 C.2       1 <0>        -0.2831
      7 C6          1.1906    3.7086    0.0268 C.3       1 <0>         0.0794
      8 H2          2.1808    4.1633   -0.0025 H         1 <0>         0.1068
      9 C7          0.4420    4.0805   -1.2182 C.2       1 <0>        -0.1164
     10 C8         -0.8512    4.4589   -1.1736 C.2       1 <0>         0.1213
     11 N1         -1.5193    4.5605    0.0266 N.pl3     1 <0>        -0.5168
     12 C9         -2.9743    4.6761    0.0522 C.3       1 <0>         0.0798
     13 C10        -3.5141    5.5106   -1.0926 C.3       1 <0>         0.0950
     14 N2         -2.8259    5.2833   -2.3503 N.am      1 <0>        -0.7136
     15 C11        -1.5793    4.7912   -2.4251 C.2       1 <0>         0.5629
     16 O1         -1.0515    4.6197   -3.5058 O.2       1 <0>        -0.4951
     17 C12         1.1305    4.0321   -2.5098 C.2       1 <0>         0.5291
     18 O2          1.2690    2.9701   -3.0854 O.2       1 <0>        -0.4839
     19 O3          1.6109    5.1657   -3.0609 O.3       1 <0>        -0.3490
     20 C13         2.2819    5.0426   -4.3426 C.3       1 <0>         0.0393
     21 C14         1.3371    2.2099    0.0859 C.ar      1 <0>        -0.0703
     22 C15         0.2128    1.4067    0.1308 C.ar      1 <0>        -0.0505
     23 C16         0.3471    0.0321    0.1846 C.ar      1 <0>        -0.1164
     24 C17         1.6059   -0.5396    0.1929 C.ar      1 <0>        -0.0535
     25 C18         2.7299    0.2634    0.1475 C.ar      1 <0>        -0.0402
     26 C19         2.5955    1.6383    0.0937 C.ar      1 <0>        -0.0293
     27 N3          4.0776   -0.3487    0.1559 N.pl3     1 <0>         0.0287
     28 O4          4.1960   -1.5601    0.2029 O.2       1 <0>        -0.1602
     29 O5          5.0682    0.3589    0.1159 O.3       1 <0>        -0.1562
     30 C20         1.1799    4.2032    2.4738 C.2       1 <0>         0.4033
     31 O6          2.3462    3.8624    2.4850 O.2       1 <0>        -0.4617
     32 C21         0.5259    4.6380    3.7565 C.3       1 <0>        -0.1544
     33 H3         -2.7416    4.6541    4.8671 H         1 <0>         0.0627
     34 H4         -1.2643    4.3444    5.8104 H         1 <0>         0.0661
     35 H5         -1.5073    5.9261    5.0309 H         1 <0>         0.0619
     36 H6         -1.4097    6.1254    2.5544 H         1 <0>         0.1077
     37 H7         -2.6064    4.8232    2.3564 H         1 <0>         0.0984
     38 H8         -3.2745    5.1347    0.9944 H         1 <0>         0.1225
     39 H9         -3.4065    3.6771   -0.0060 H         1 <0>         0.0898
     40 H10        -3.4219    6.5645   -0.8299 H         1 <0>         0.0800
     41 H11        -4.5702    5.2760   -1.2253 H         1 <0>         0.1072
     42 H12        -3.2888    5.4967   -3.1755 H         1 <0>         0.4160
     43 H13         2.6186    6.0255   -4.6723 H         1 <0>         0.1021
     44 H14         3.1410    4.3795   -4.2408 H         1 <0>         0.0631
     45 H15         1.5899    4.6304   -5.0770 H         1 <0>         0.0668
     46 H16        -0.7706    1.8531    0.1194 H         1 <0>         0.1292
     47 H17        -0.5312   -0.5954    0.2197 H         1 <0>         0.1473
     48 H18         1.7109   -1.6137    0.2346 H         1 <0>         0.1542
     49 H19         3.4739    2.2658    0.0582 H         1 <0>         0.1529
     50 H20         0.6632    5.6194    3.8903 H         1 <0>         0.0941
     51 H21         0.9623    4.0930    4.5936 H         1 <0>         0.1002
@<TRIPOS>BOND
     1    1    2 1
     2    1   33 1
     3    1   34 1
     4    1   35 1
     5    2    3 1
     6    2   32 1
     7    2    4 1
     8    4    5 1
     9    4   36 1
    10    4   37 1
    11    5   11 1
    12    5    6 2
    13    6    7 1
    14    6   30 1
    15    7    8 1
    16    7    9 1
    17    7   21 1
    18    9   10 2
    19    9   17 1
    20   10   15 1
    21   10   11 1
    22   11   12 1
    23   12   13 1
    24   12   38 1
    25   12   39 1
    26   13   14 1
    27   13   40 1
    28   13   41 1
    29   14   15 am
    30   14   42 1
    31   15   16 2
    32   17   18 2
    33   17   19 1
    34   19   20 1
    35   20   43 1
    36   20   44 1
    37   20   45 1
    38   21   26 ar
    39   21   22 ar
    40   22   23 ar
    41   22   46 1
    42   23   24 ar
    43   23   47 1
    44   24   25 ar
    45   24   48 1
    46   25   26 ar
    47   25   27 1
    48   26   49 1
    49   27   28 2
    50   27   29 1
    51   30   31 2
    52   30   32 1
    53   32   50 1
    54   32   51 1
