@<TRIPOS>MOLECULE
ZINC66683560
   62    63     0     0     0
SMALL
USER_CHARGES

@<TRIPOS>ATOM
      1 C1          0.1709   -0.2675    0.2971 C.3       1 <0>        -0.1303
      2 C2          1.5055   -0.6668   -0.2780 C.ar      1 <0>         0.0039
      3 C3          1.5824   -1.6919   -1.1938 C.ar      1 <0>        -0.1319
      4 C4          2.8139   -2.0607   -1.7255 C.ar      1 <0>         0.1824
      5 C5          3.9717   -1.3955   -1.3340 C.ar      1 <0>        -0.1585
      6 C6          3.9019   -0.3698   -0.4188 C.ar      1 <0>        -0.0577
      7 C7          2.6655    0.0069    0.1134 C.ar      1 <0>        -0.1519
      8 C8          2.5861    1.1099    1.0907 C.2       1 <0>         0.5586
      9 O1          1.5151    1.4124    1.5804 O.2       1 <0>        -0.5266
     10 N1          3.7008    1.7820    1.4403 N.am      1 <0>        -0.7228
     11 C9          3.6221    2.8769    2.4105 C.3       1 <0>         0.1359
     12 C10         3.6968    2.3080    3.8288 C.3       1 <0>        -0.1653
     13 C11         4.7878    3.8420    2.1860 C.3       1 <0>        -0.1626
     14 N2          2.8882   -3.0996   -2.6525 N.am      1 <0>        -0.6782
     15 C12         2.0404   -4.1436   -2.5641 C.2       1 <0>         0.7026
     16 O2          1.2710   -4.2241   -1.6262 O.2       1 <0>        -0.5475
     17 N3          2.0455   -5.0982   -3.5155 N.am      1 <0>        -0.7635
     18 C13         1.1239   -6.2330   -3.4195 C.3       1 <0>         0.1114
     19 C14         1.1851   -7.0504   -4.7113 C.3       1 <0>         0.0229
     20 H1          2.2236   -7.2873   -4.9426 H         1 <0>         0.1433
     21 C15         0.3939   -8.3476   -4.5320 C.3       1 <0>        -0.1059
     22 C16         0.5778   -9.2321   -5.7668 C.3       1 <0>        -0.1810
     23 C17         0.9028   -9.0884   -3.2937 C.3       1 <0>        -0.1578
     24 N4          0.6039   -6.2706   -5.8123 N.4       1 <0>        -0.3902
     25 C18         1.3302   -4.9844   -5.9681 C.3       1 <0>        -0.0114
     26 C19         1.0141   -4.5733   -7.4281 C.3       1 <0>        -0.1453
     27 C20         1.0262   -5.9251   -8.1781 C.3       1 <0>        -0.1471
     28 C21         0.7772   -6.9893   -7.0933 C.3       1 <0>        -0.0200
     29 H2         -0.2259    0.5808   -0.2605 H         1 <0>         0.0770
     30 H3         -0.5216   -1.1061    0.2244 H         1 <0>         0.0594
     31 H4          0.2950    0.0115    1.3435 H         1 <0>         0.1067
     32 H5          0.6857   -2.2105   -1.4995 H         1 <0>         0.1402
     33 H6          4.9262   -1.6845   -1.7485 H         1 <0>         0.1328
     34 H7          4.8009    0.1462   -0.1154 H         1 <0>         0.1329
     35 H8          4.5553    1.5407    1.0497 H         1 <0>         0.3975
     36 H9          2.6797    3.4093    2.2817 H         1 <0>         0.0910
     37 H10         3.6382    3.1226    4.5506 H         1 <0>         0.0688
     38 H11         2.8663    1.6204    3.9887 H         1 <0>         0.0609
     39 H12         4.6392    1.7756    3.9575 H         1 <0>         0.0568
     40 H13         4.7346    4.2473    1.1756 H         1 <0>         0.0622
     41 H14         4.7292    4.6567    2.9078 H         1 <0>         0.0764
     42 H15         5.7302    3.3097    2.3147 H         1 <0>         0.0614
     43 H16         3.5502   -3.0711   -3.3610 H         1 <0>         0.4092
     44 H17         2.6593   -5.0339   -4.2638 H         1 <0>         0.3969
     45 H18         1.4096   -6.8628   -2.5771 H         1 <0>         0.1189
     46 H19         0.1088   -5.8650   -3.2701 H         1 <0>         0.0991
     47 H20        -0.6634   -8.1140   -4.4066 H         1 <0>         0.0988
     48 H21         1.6159   -9.1853   -6.0959 H         1 <0>         0.0692
     49 H22         0.3218  -10.2619   -5.5176 H         1 <0>         0.0851
     50 H23        -0.0732   -8.8792   -6.5667 H         1 <0>         0.0700
     51 H24         0.7718   -8.4583   -2.4140 H         1 <0>         0.0728
     52 H25         0.3392  -10.0125   -3.1660 H         1 <0>         0.0818
     53 H26         1.9601   -9.3220   -3.4191 H         1 <0>         0.0694
     54 H27         0.9498   -4.2405   -5.2680 H         1 <0>         0.1395
     55 H28         2.4020   -5.1290   -5.8326 H         1 <0>         0.1277
     56 H29         0.0319   -4.1051   -7.4929 H         1 <0>         0.0999
     57 H30         1.7857   -3.9092   -7.8175 H         1 <0>         0.1176
     58 H31         0.2312   -5.9514   -8.9234 H         1 <0>         0.1062
     59 H32         1.9948   -6.0866   -8.6512 H         1 <0>         0.1040
     60 H33         1.6328   -7.6615   -7.0292 H         1 <0>         0.1364
     61 H34        -0.1253   -7.5540   -7.3273 H         1 <0>         0.1403
     62 H35        -0.3753   -6.0996   -5.6390 H         1 <0>         0.4277
@<TRIPOS>BOND
     1    1    2 1
     2    1   29 1
     3    1   30 1
     4    1   31 1
     5    2    7 ar
     6    2    3 ar
     7    3    4 ar
     8    3   32 1
     9    4    5 ar
    10    4   14 1
    11    5    6 ar
    12    5   33 1
    13    6    7 ar
    14    6   34 1
    15    7    8 1
    16    8    9 2
    17    8   10 am
    18   10   11 1
    19   10   35 1
    20   11   12 1
    21   11   13 1
    22   11   36 1
    23   12   37 1
    24   12   38 1
    25   12   39 1
    26   13   40 1
    27   13   41 1
    28   13   42 1
    29   14   15 am
    30   14   43 1
    31   15   16 2
    32   15   17 am
    33   17   18 1
    34   17   44 1
    35   18   19 1
    36   18   45 1
    37   18   46 1
    38   19   20 1
    39   19   21 1
    40   19   24 1
    41   21   22 1
    42   21   23 1
    43   21   47 1
    44   22   48 1
    45   22   49 1
    46   22   50 1
    47   23   51 1
    48   23   52 1
    49   23   53 1
    50   24   28 1
    51   24   25 1
    52   24   62 1
    53   25   26 1
    54   25   54 1
    55   25   55 1
    56   26   27 1
    57   26   56 1
    58   26   57 1
    59   27   28 1
    60   27   58 1
    61   27   59 1
    62   28   60 1
    63   28   61 1
