@<TRIPOS>MOLECULE
ZINC38696979
   45    47     0     0     0
SMALL
USER_CHARGES

@<TRIPOS>ATOM
      1 C1         -0.0034    1.5058    0.0189 C.3       1 <0>        -0.1486
      2 C2          0.0105   -0.0240   -0.0020 C.3       1 <0>        -0.1135
      3 H1          0.5153   -0.3705   -0.9038 H         1 <0>         0.1280
      4 C3         -1.4055   -0.5394    0.0107 C.2       1 <0>         0.5445
      5 O1         -1.9295   -0.8471    1.0603 O.2       1 <0>        -0.4830
      6 N1         -2.0896   -0.6586   -1.1444 N.am      1 <0>        -0.6474
      7 C4         -3.3571   -1.2367   -1.1468 C.2       1 <0>         0.3370
      8 C5         -4.0147   -1.5999   -0.0521 C.2       1 <0>        -0.3238
      9 C6         -5.3371   -2.1762   -0.5105 C.3       1 <0>         0.0787
     10 N2         -5.2915   -2.0702   -1.9822 N.3       1 <0>        -0.4166
     11 N3         -4.0902   -1.4987   -2.2887 N.pl3     1 <0>        -0.4934
     12 C7         -3.6357   -1.2055   -3.6503 C.3       1 <0>         0.1743
     13 C8         -3.6954   -2.4808   -4.4936 C.3       1 <0>        -0.1712
     14 C9         -4.5411   -0.1403   -4.2718 C.3       1 <0>        -0.1608
     15 S1          0.8916   -0.6407    1.4588 S.3       1 <0>         0.1053
     16 C10         2.5467   -0.0833    1.2252 C.2       1 <0>         0.2498
     17 H2          4.9293    1.3494   -0.1921 H         1 <0>         0.4578
     18 N4          2.9770    0.6156    0.2147 N.2       1 <0>        -0.2851
     19 N5          4.3454    0.8539    0.4032 N.am      1 <0>        -0.5414
     20 C11         4.7011    0.2669    1.5646 C.2       1 <0>         0.6551
     21 O2          5.8153    0.2630    2.0574 O.2       1 <0>        -0.5434
     22 N6          3.5987   -0.3093    2.0838 N.am      1 <0>        -0.5035
     23 C12         3.5323   -1.0527    3.3444 C.3       1 <0>         0.0637
     24 C13         4.8530   -1.3634    4.0517 C.3       1 <0>        -0.1737
     25 C14         3.9082   -0.3057    4.6257 C.3       1 <0>        -0.1731
     26 H3          1.0209    1.8786    0.0098 H         1 <0>         0.0887
     27 H4         -0.5328    1.8764   -0.8588 H         1 <0>         0.0764
     28 H5         -0.5081    1.8522    0.9208 H         1 <0>         0.0803
     29 H6         -1.6995   -0.3418   -1.9741 H         1 <0>         0.4096
     30 H7         -3.6724   -1.5029    0.9676 H         1 <0>         0.1780
     31 H8         -5.4242   -3.2192   -0.2061 H         1 <0>         0.0604
     32 H9         -6.1662   -1.5915   -0.1119 H         1 <0>         0.0931
     33 H10        -5.3844   -2.9778   -2.4132 H         1 <0>         0.3216
     34 H11        -2.6101   -0.8378   -3.6197 H         1 <0>         0.0800
     35 H12        -3.3573   -2.2626   -5.5066 H         1 <0>         0.0745
     36 H13        -3.0504   -3.2397   -4.0508 H         1 <0>         0.0578
     37 H14        -4.7211   -2.8485   -4.5241 H         1 <0>         0.0662
     38 H15        -4.4986    0.7682   -3.6710 H         1 <0>         0.0588
     39 H16        -4.2030    0.0779   -5.2848 H         1 <0>         0.0652
     40 H17        -5.5668   -0.5080   -4.3024 H         1 <0>         0.0696
     41 H18         2.7386   -1.7969    3.4102 H         1 <0>         0.1483
     42 H19         4.9284   -2.3122    4.5828 H         1 <0>         0.1108
     43 H20         5.7712   -1.0147    3.5791 H         1 <0>         0.1310
     44 H21         4.2048    0.7389    4.5307 H         1 <0>         0.1003
     45 H22         3.3620   -0.5587    5.5344 H         1 <0>         0.1140
@<TRIPOS>BOND
     1    1    2 1
     2    1   26 1
     3    1   27 1
     4    1   28 1
     5    2    3 1
     6    2    4 1
     7    2   15 1
     8    4    5 2
     9    4    6 am
    10    6    7 1
    11    6   29 1
    12    7   11 1
    13    7    8 2
    14    8    9 1
    15    8   30 1
    16    9   10 1
    17    9   31 1
    18    9   32 1
    19   10   11 1
    20   10   33 1
    21   11   12 1
    22   12   13 1
    23   12   14 1
    24   12   34 1
    25   13   35 1
    26   13   36 1
    27   13   37 1
    28   14   38 1
    29   14   39 1
    30   14   40 1
    31   15   16 1
    32   16   22 1
    33   16   18 2
    34   17   19 1
    35   18   19 1
    36   19   20 am
    37   20   21 2
    38   20   22 am
    39   22   23 1
    40   23   25 1
    41   23   24 1
    42   23   41 1
    43   24   25 1
    44   24   42 1
    45   24   43 1
    46   25   44 1
    47   25   45 1
