@<TRIPOS>MOLECULE
ZINC40847825
   53    55     0     0     0
SMALL
USER_CHARGES

@<TRIPOS>ATOM
      1 C1         -0.0184    1.5028    0.0107 C.3       1 <0>        -0.1119
      2 C2          0.0021   -0.0041    0.0023 C.ar      1 <0>        -0.1150
      3 C3         -0.2122   -0.6906   -1.1788 C.ar      1 <0>        -0.0643
      4 C4         -0.1944   -2.0719   -1.1896 C.ar      1 <0>        -0.2030
      5 C5          0.0392   -2.7708   -0.0143 C.ar      1 <0>         0.1487
      6 C6          0.2545   -2.0798    1.1699 C.ar      1 <0>        -0.1175
      7 C7          0.2408   -0.6975    1.1742 C.ar      1 <0>        -0.0527
      8 Br1         0.5727   -3.0281    2.7747 Br        1 <0>        -0.0282
      9 O1          0.0567   -4.1298   -0.0224 O.3       1 <0>        -0.2701
     10 C8         -0.0525   -4.7724   -1.2941 C.3       1 <0>         0.0739
     11 H1          0.4617   -4.1761   -2.0478 H         1 <0>         0.1047
     12 C9         -1.5289   -4.9088   -1.6716 C.3       1 <0>        -0.1791
     13 C10         0.5757   -6.1403   -1.2212 C.2       1 <0>         0.5343
     14 O2          0.9871   -6.5632   -0.1613 O.2       1 <0>        -0.4669
     15 N1          0.6806   -6.8938   -2.3337 N.am      1 <0>        -0.5811
     16 N2          1.2646   -8.1655   -2.2660 N.2       1 <0>        -0.2196
     17 C11         1.3655   -8.8909   -3.3370 C.2       1 <0>         0.1145
     18 C12         1.9804  -10.2297   -3.2657 C.ar      1 <0>        -0.0191
     19 C13         2.4499  -10.7217   -2.0452 C.ar      1 <0>        -0.1141
     20 C14         3.0244  -11.9743   -1.9827 C.ar      1 <0>        -0.0827
     21 C15         3.1376  -12.7459   -3.1248 C.ar      1 <0>        -0.1914
     22 C16         2.6745  -12.2656   -4.3423 C.ar      1 <0>         0.1259
     23 C17         2.0904  -11.0124   -4.4163 C.ar      1 <0>        -0.1219
     24 O3          2.7890  -13.0286   -5.4612 O.3       1 <0>        -0.3079
     25 C18         3.3959  -14.3135   -5.3109 C.3       1 <0>         0.1021
     26 C19         3.4362  -15.0094   -6.6470 C.ar      1 <0>        -0.0992
     27 C20         2.3781  -15.8058   -7.0437 C.ar      1 <0>        -0.0950
     28 C21         2.4151  -16.4441   -8.2692 C.ar      1 <0>        -0.1232
     29 C22         3.5098  -16.2858   -9.0983 C.ar      1 <0>        -0.1085
     30 C23         4.5674  -15.4887   -8.7020 C.ar      1 <0>        -0.1232
     31 C24         4.5286  -14.8470   -7.4783 C.ar      1 <0>        -0.0950
     32 H2          0.9852    1.8809   -0.1838 H         1 <0>         0.0726
     33 H3         -0.6980    1.8612   -0.7624 H         1 <0>         0.0692
     34 H4         -0.3573    1.8560    0.9846 H         1 <0>         0.0691
     35 H5         -0.3941   -0.1463   -2.0937 H         1 <0>         0.1335
     36 H6         -0.3627   -2.6073   -2.1123 H         1 <0>         0.1378
     37 H7          0.4123   -0.1589    2.0945 H         1 <0>         0.1406
     38 H8         -1.9833   -3.9194   -1.7242 H         1 <0>         0.0825
     39 H9         -1.6122   -5.3989   -2.6415 H         1 <0>         0.0799
     40 H10        -2.0431   -5.5050   -0.9178 H         1 <0>         0.0810
     41 H11         0.3517   -6.5557   -3.1813 H         1 <0>         0.3871
     42 H12         0.9993   -8.5145   -4.2807 H         1 <0>         0.1250
     43 H13         2.3634  -10.1217   -1.1514 H         1 <0>         0.1376
     44 H14         3.3873  -12.3535   -1.0388 H         1 <0>         0.1312
     45 H15         3.5883  -13.7258   -3.0694 H         1 <0>         0.1307
     46 H16         1.7251  -10.6398   -5.3619 H         1 <0>         0.1369
     47 H17         4.4112  -14.1939   -4.9328 H         1 <0>         0.0729
     48 H18         2.8144  -14.9100   -4.6079 H         1 <0>         0.0730
     49 H19         1.5228  -15.9295   -6.3959 H         1 <0>         0.1246
     50 H20         1.5888  -17.0668   -8.5789 H         1 <0>         0.1260
     51 H21         3.5390  -16.7851  -10.0555 H         1 <0>         0.1250
     52 H22         5.4229  -15.3653   -9.3496 H         1 <0>         0.1260
     53 H23         5.3532  -14.2213   -7.1702 H         1 <0>         0.1245
@<TRIPOS>BOND
     1    1    2 1
     2    1   32 1
     3    1   33 1
     4    1   34 1
     5    2    7 ar
     6    2    3 ar
     7    3    4 ar
     8    3   35 1
     9    4    5 ar
    10    4   36 1
    11    5    6 ar
    12    5    9 1
    13    6    7 ar
    14    6    8 1
    15    7   37 1
    16    9   10 1
    17   10   11 1
    18   10   12 1
    19   10   13 1
    20   12   38 1
    21   12   39 1
    22   12   40 1
    23   13   14 2
    24   13   15 am
    25   15   16 1
    26   15   41 1
    27   16   17 2
    28   17   18 1
    29   17   42 1
    30   18   23 ar
    31   18   19 ar
    32   19   20 ar
    33   19   43 1
    34   20   21 ar
    35   20   44 1
    36   21   22 ar
    37   21   45 1
    38   22   23 ar
    39   22   24 1
    40   23   46 1
    41   24   25 1
    42   25   26 1
    43   25   47 1
    44   25   48 1
    45   26   31 ar
    46   26   27 ar
    47   27   28 ar
    48   27   49 1
    49   28   29 ar
    50   28   50 1
    51   29   30 ar
    52   29   51 1
    53   30   31 ar
    54   30   52 1
    55   31   53 1
