@<TRIPOS>MOLECULE
ZINC19356750
   54    57     0     0     0
SMALL
USER_CHARGES
[(1S)-2-morpholino-2-oxo-1-phenyl-ethyl] 4-(2-thienylsulfonylamino)benzoate
@<TRIPOS>ATOM
      1 C1         -0.1725    4.2711    3.3639 C.ar      1 <0>        -0.1094
      2 C2          0.2003    4.6566    2.0899 C.ar      1 <0>        -0.1215
      3 C3          0.0856    3.7677    1.0374 C.ar      1 <0>        -0.1007
      4 C4         -0.4010    2.4929    1.2593 C.ar      1 <0>        -0.1089
      5 C5         -0.7783    2.1090    2.5325 C.ar      1 <0>        -0.0842
      6 C6         -0.6596    2.9965    3.5857 C.ar      1 <0>        -0.1193
      7 C7         -0.5260    1.5239    0.1120 C.3       1 <0>         0.1137
      8 H1         -0.5119    2.0608   -0.8479 H         1 <0>         0.1145
      9 C8          0.6005    0.5247    0.1734 C.2       1 <0>         0.5321
     10 O1          0.4025   -0.5857    0.6192 O.2       1 <0>        -0.5051
     11 N1          1.8266    0.8633   -0.2722 N.am      1 <0>        -0.6125
     12 C9          2.0622    2.1573   -0.9319 C.3       1 <0>         0.0590
     13 C10         3.2685    2.8277   -0.2550 C.3       1 <0>         0.0472
     14 O2          4.3670    1.9129   -0.2420 O.3       1 <0>        -0.3772
     15 C11         4.1290    0.7230    0.5137 C.3       1 <0>         0.0473
     16 C12         2.9679   -0.0528   -0.1188 C.3       1 <0>         0.0772
     17 O3         -1.7966    0.8270    0.2032 O.3       1 <0>        -0.3248
     18 C13        -2.8487    1.3884   -0.4243 C.2       1 <0>         0.5197
     19 O4         -2.7082    2.4318   -1.0311 O.2       1 <0>        -0.5230
     20 C14        -4.1698    0.7370   -0.3746 C.ar      1 <0>        -0.1980
     21 C15        -4.3320   -0.4668    0.3186 C.ar      1 <0>        -0.0412
     22 C16        -5.5637   -1.0670    0.3681 C.ar      1 <0>        -0.1760
     23 C17        -6.6498   -0.4856   -0.2808 C.ar      1 <0>         0.2723
     24 C18        -6.4905    0.7097   -0.9770 C.ar      1 <0>        -0.1815
     25 C19        -5.2628    1.3183   -1.0252 C.ar      1 <0>        -0.0305
     26 N2         -7.8961   -1.0995   -0.2331 N.2       1 <0>        -1.0881
     27 S1         -8.4803   -1.8918   -1.5647 S.o2      1 <0>         2.6247
     28 O5         -9.7279   -2.4569   -1.1861 O.2       1 <0>        -0.9891
     29 O6         -8.3509   -0.9956   -2.6598 O.2       1 <0>        -1.0248
     30 C20        -7.3934   -3.2407   -1.8868 C.2       1 <0>        -0.6951
     31 C21        -7.4966   -4.5332   -1.4915 C.2       1 <0>        -0.0566
     32 C22        -6.5135   -5.4295   -1.8669 C.2       1 <0>        -0.1789
     33 C23        -5.4754   -4.9894   -2.6192 C.2       1 <0>        -0.1758
     34 S2         -5.8747   -3.2616   -2.8250 S.3       1 <0>         0.1284
     35 H2         -0.0830    4.9655    4.1862 H         1 <0>         0.1241
     36 H3          0.5808    5.6523    1.9166 H         1 <0>         0.1264
     37 H4          0.3765    4.0689    0.0420 H         1 <0>         0.1250
     38 H5         -1.1626    1.1146    2.7050 H         1 <0>         0.1320
     39 H6         -0.9506    2.6952    4.5812 H         1 <0>         0.1266
     40 H7          2.2708    1.9921   -1.9992 H         1 <0>         0.0849
     41 H8          1.1690    2.7906   -0.8266 H         1 <0>         0.0982
     42 H9          3.5474    3.7323   -0.8153 H         1 <0>         0.1099
     43 H10         3.0041    3.1025    0.7768 H         1 <0>         0.0612
     44 H11         5.0349    0.0991    0.5102 H         1 <0>         0.1097
     45 H12         3.8727    0.9914    1.5492 H         1 <0>         0.0578
     46 H13         2.6790   -0.8930    0.5297 H         1 <0>         0.1047
     47 H14         3.2651   -0.4368   -1.1058 H         1 <0>         0.0798
     48 H15        -3.4889   -0.9208    0.8181 H         1 <0>         0.1227
     49 H16        -5.6908   -1.9940    0.9076 H         1 <0>         0.1191
     50 H17        -7.3349    1.1581   -1.4792 H         1 <0>         0.1267
     51 H18        -5.1401    2.2458   -1.5648 H         1 <0>         0.1218
     52 H19        -8.3345   -4.8580   -0.8925 H         1 <0>         0.1396
     53 H20        -6.5718   -6.4649   -1.5656 H         1 <0>         0.1319
     54 H21        -4.6285   -5.5417   -2.9990 H         1 <0>         0.1840
@<TRIPOS>BOND
     1    1    6 ar
     2    1    2 ar
     3    1   35 1
     4    2    3 ar
     5    2   36 1
     6    3    4 ar
     7    3   37 1
     8    4    5 ar
     9    4    7 1
    10    5    6 ar
    11    5   38 1
    12    6   39 1
    13    7    8 1
    14    7    9 1
    15    7   17 1
    16    9   10 2
    17    9   11 am
    18   11   16 1
    19   11   12 1
    20   12   13 1
    21   12   40 1
    22   12   41 1
    23   13   14 1
    24   13   42 1
    25   13   43 1
    26   14   15 1
    27   15   16 1
    28   15   44 1
    29   15   45 1
    30   16   46 1
    31   16   47 1
    32   17   18 1
    33   18   19 2
    34   18   20 1
    35   20   25 ar
    36   20   21 ar
    37   21   22 ar
    38   21   48 1
    39   22   23 ar
    40   22   49 1
    41   23   24 ar
    42   23   26 1
    43   24   25 ar
    44   24   50 1
    45   25   51 1
    46   26   27 1
    47   27   28 2
    48   27   29 2
    49   27   30 1
    50   30   34 1
    51   30   31 2
    52   31   32 1
    53   31   52 1
    54   32   33 2
    55   32   53 1
    56   33   34 1
    57   33   54 1
