@<TRIPOS>MOLECULE
ZINC36958135
   34    36     0     0     0
SMALL
USER_CHARGES

@<TRIPOS>ATOM
      1 C1         -0.0167    1.3773    0.0096 C.ar      1 <0>        -0.0439
      2 C2          1.1686    2.0873    0.0021 C.ar      1 <0>        -0.1913
      3 C3          2.3834    1.4132   -0.0131 C.ar      1 <0>         0.2425
      4 C4          2.4048    0.0251   -0.0207 C.ar      1 <0>        -0.1814
      5 C5          1.2132   -0.6839   -0.0131 C.ar      1 <0>         0.1773
      6 C6          0.0021   -0.0041    0.0020 C.ar      1 <0>        -0.1834
      7 N1          1.2308   -2.0864   -0.0212 N.pl3     1 <0>        -0.3270
      8 C7          0.1680   -2.9199   -0.0211 C.2       1 <0>         0.2296
      9 N2          0.6330   -4.1418   -0.0310 N.2       1 <0>        -0.3299
     10 N3          1.9172   -4.1376   -0.0374 N.2       1 <0>        -0.0340
     11 N4          2.3585   -2.9259   -0.0374 N.2       1 <0>        -0.0758
     12 N5          3.5815    2.1311   -0.0211 N.pl3     1 <0>        -0.7316
     13 C8          3.5577    3.5959   -0.0136 C.3       1 <0>         0.1756
     14 C9          4.9701    4.1213   -0.0246 C.ar      1 <0>        -0.1499
     15 C10         5.5582    4.5456    1.1518 C.ar      1 <0>        -0.0658
     16 C11         6.8528    5.0277    1.1449 C.ar      1 <0>        -0.1557
     17 C12         7.5662    5.0870   -0.0442 C.ar      1 <0>         0.1353
     18 C13         6.9786    4.6620   -1.2255 C.ar      1 <0>        -0.1770
     19 C14         5.6811    4.1732   -1.2151 C.ar      1 <0>         0.1444
     20 O1          5.1044    3.7502   -2.3706 O.3       1 <0>        -0.4906
     21 O2          8.8395    5.5618   -0.0505 O.3       1 <0>        -0.4971
     22 H1         -0.9598    1.9033    0.0259 H         1 <0>         0.1383
     23 H2          1.1508    3.1671    0.0077 H         1 <0>         0.1308
     24 H3          3.3477   -0.5014   -0.0328 H         1 <0>         0.1381
     25 H4         -0.9262   -0.5561    0.0082 H         1 <0>         0.1315
     26 H5         -0.8725   -2.6308   -0.0141 H         1 <0>         0.2405
     27 H6          4.4292    1.6598   -0.0317 H         1 <0>         0.4049
     28 H7          3.0294    3.9553   -0.8967 H         1 <0>         0.0717
     29 H8          3.0467    3.9464    0.8832 H         1 <0>         0.0725
     30 H9          5.0046    4.5006    2.0780 H         1 <0>         0.1356
     31 H10         7.3101    5.3591    2.0655 H         1 <0>         0.1358
     32 H11         7.5321    4.7073   -2.1518 H         1 <0>         0.1381
     33 H12         4.6325    4.4437   -2.8516 H         1 <0>         0.3946
     34 H13         9.5132    4.8825    0.0901 H         1 <0>         0.3972
@<TRIPOS>BOND
     1    1    6 ar
     2    1    2 ar
     3    1   22 1
     4    2    3 ar
     5    2   23 1
     6    3    4 ar
     7    3   12 1
     8    4    5 ar
     9    4   24 1
    10    5    6 ar
    11    5    7 1
    12    6   25 1
    13    7   11 1
    14    7    8 1
    15    8    9 2
    16    8   26 1
    17    9   10 1
    18   10   11 2
    19   12   13 1
    20   12   27 1
    21   13   14 1
    22   13   28 1
    23   13   29 1
    24   14   19 ar
    25   14   15 ar
    26   15   16 ar
    27   15   30 1
    28   16   17 ar
    29   16   31 1
    30   17   18 ar
    31   17   21 1
    32   18   19 ar
    33   18   32 1
    34   19   20 1
    35   20   33 1
    36   21   34 1
