@<TRIPOS>MOLECULE
ZINC38568845
   39    40     0     0     0
SMALL
USER_CHARGES

@<TRIPOS>ATOM
      1 C1         -0.0187    1.5258    0.0104 C.3       1 <0>        -0.1659
      2 C2          0.0021   -0.0041    0.0020 C.3       1 <0>         0.1320
      3 N1          0.6878   -0.4765   -1.2033 N.am      1 <0>        -0.7466
      4 C3          0.8268   -1.7986   -1.4250 C.2       1 <0>         0.7040
      5 O1          0.3832   -2.5992   -0.6247 O.2       1 <0>        -0.5897
      6 N2          1.4577   -2.2333   -2.5339 N.am      1 <0>        -0.7435
      7 C4          1.6088   -3.6704   -2.7749 C.3       1 <0>         0.1490
      8 C5          2.3552   -3.8909   -4.0922 C.3       1 <0>         0.0332
      9 H1          1.8618   -3.3662   -4.9104 H         1 <0>         0.0921
     10 C6          2.4930   -5.4018   -4.4054 C.3       1 <0>         0.0296
     11 O2          3.6781   -5.4584   -5.2252 O.3       1 <0>        -0.3683
     12 C7          4.4347   -4.2702   -4.9615 C.3       1 <0>         0.2592
     13 O3          3.7406   -3.4858   -3.9772 O.3       1 <0>        -0.3651
     14 C8          4.5794   -3.4570   -6.2490 C.3       1 <0>        -0.1352
     15 C9          5.3228   -4.2886   -7.2963 C.3       1 <0>        -0.1151
     16 C10         6.7082   -4.6593   -6.7633 C.3       1 <0>        -0.1231
     17 C11         6.5591   -5.4780   -5.4795 C.3       1 <0>        -0.1148
     18 C12         5.8176   -4.6487   -4.4289 C.3       1 <0>        -0.1196
     19 H2          1.0039    1.9031    0.0027 H         1 <0>         0.0618
     20 H3         -0.5459    1.8868   -0.8726 H         1 <0>         0.0616
     21 H4         -0.5289    1.8773    0.9072 H         1 <0>         0.0764
     22 H5          0.5293   -0.3651    0.8851 H         1 <0>         0.0666
     23 H6         -1.0205   -0.3814    0.0098 H         1 <0>         0.0667
     24 H7          1.0417    0.1622   -1.8418 H         1 <0>         0.3966
     25 H8          1.8116   -1.5946   -3.1724 H         1 <0>         0.3995
     26 H9          2.1741   -4.1184   -1.9577 H         1 <0>         0.0796
     27 H10         0.6243   -4.1346   -2.8330 H         1 <0>         0.0870
     28 H11         2.6315   -5.9742   -3.4882 H         1 <0>         0.0820
     29 H12         1.6250   -5.7615   -4.9578 H         1 <0>         0.1050
     30 H13         3.5908   -3.1961   -6.6269 H         1 <0>         0.0675
     31 H14         5.1414   -2.5462   -6.0422 H         1 <0>         0.0800
     32 H15         4.7589   -5.1976   -7.5057 H         1 <0>         0.0714
     33 H16         5.4294   -3.7079   -8.2126 H         1 <0>         0.0660
     34 H17         7.2392   -5.2489   -7.5106 H         1 <0>         0.0661
     35 H18         7.2710   -3.7502   -6.5511 H         1 <0>         0.0622
     36 H19         5.9939   -6.3857   -5.6911 H         1 <0>         0.0718
     37 H20         7.5462   -5.7445   -5.1017 H         1 <0>         0.0680
     38 H21         6.3848   -3.7430   -4.2143 H         1 <0>         0.0790
     39 H22         5.7076   -5.2335   -3.5156 H         1 <0>         0.0731
@<TRIPOS>BOND
     1    1    2 1
     2    1   19 1
     3    1   20 1
     4    1   21 1
     5    2    3 1
     6    2   22 1
     7    2   23 1
     8    3    4 am
     9    3   24 1
    10    4    5 2
    11    4    6 am
    12    6    7 1
    13    6   25 1
    14    7    8 1
    15    7   26 1
    16    7   27 1
    17    8    9 1
    18    8   13 1
    19    8   10 1
    20   10   11 1
    21   10   28 1
    22   10   29 1
    23   11   12 1
    24   12   18 1
    25   12   13 1
    26   12   14 1
    27   14   15 1
    28   14   30 1
    29   14   31 1
    30   15   16 1
    31   15   32 1
    32   15   33 1
    33   16   17 1
    34   16   34 1
    35   16   35 1
    36   17   18 1
    37   17   36 1
    38   17   37 1
    39   18   38 1
    40   18   39 1
