@<TRIPOS>MOLECULE
ZINC22928420
   75    78     0     0     0
SMALL
USER_CHARGES

@<TRIPOS>ATOM
      1 C1         -2.1619    2.2620    2.4284 C.3       1 <0>        -0.1244
      2 C2         -2.1952    0.8038    2.0495 C.ar      1 <0>        -0.1261
      3 C3         -2.6980    0.4184    0.8252 C.ar      1 <0>        -0.0378
      4 C4         -2.7347   -0.9214    0.4644 C.ar      1 <0>        -0.1368
      5 C5         -2.2722   -1.8839    1.3168 C.ar      1 <0>        -0.0478
      6 C6         -1.7573   -1.5162    2.5639 C.ar      1 <0>        -0.1581
      7 C7         -1.7135   -0.1578    2.9313 C.ar      1 <0>         0.2041
      8 N1         -1.2004    0.1998    4.1599 N.am      1 <0>        -0.6184
      9 H1         -1.1746    1.1358    4.4131 H         1 <0>         0.4265
     10 C8         -0.7357   -0.7303    5.0124 C.2       1 <0>         0.5468
     11 O1         -0.2898   -0.3780    6.0907 O.2       1 <0>        -0.5329
     12 C9         -0.7516   -2.1043    4.6903 C.2       1 <0>        -0.2876
     13 C10        -1.2538   -2.5215    3.5018 C.2       1 <0>         0.0710
     14 C11        -0.2204   -3.1127    5.6762 C.3       1 <0>         0.0616
     15 N2          1.2107   -3.3329    5.4284 N.4       1 <0>        -0.3814
     16 C12         1.7237   -4.3318    6.3756 C.3       1 <0>        -0.0480
     17 C13         3.1550   -3.9677    6.7753 C.3       1 <0>         0.0133
     18 N3          3.6215   -4.8900    7.8192 N.3       1 <0>        -0.5257
     19 C14         2.8603   -4.7058    9.0634 C.3       1 <0>         0.0051
     20 C15         3.3369   -5.7243   10.1024 C.3       1 <0>         0.0634
     21 O2          4.7449   -5.5715   10.3014 O.3       1 <0>        -0.3770
     22 C16         5.5169   -5.7450    9.1100 C.3       1 <0>         0.0636
     23 C17         5.0623   -4.7267    8.0610 C.3       1 <0>         0.0191
     24 C18         1.4010   -3.8176    4.0548 C.3       1 <0>         0.1175
     25 H2          0.6122   -4.5281    3.8077 H         1 <0>         0.1542
     26 C19         2.7418   -4.4963    3.9428 C.2       1 <0>         0.1249
     27 N4          3.9178   -3.9205    4.0015 N.2       1 <0>        -0.2634
     28 N5          4.8156   -4.8345    3.8653 N.2       1 <0>        -0.0580
     29 N6          4.2428   -5.9784    3.7213 N.2       1 <0>        -0.0436
     30 N7          2.9643   -5.8124    3.7688 N.pl3     1 <0>        -0.2709
     31 C20         1.9459   -6.8590    3.6519 C.3       1 <0>         0.1519
     32 C21         1.0434   -6.5608    2.4529 C.3       1 <0>        -0.1746
     33 C22         2.6278   -8.2140    3.4523 C.3       1 <0>        -0.1561
     34 C23         1.1029   -6.8954    4.9282 C.3       1 <0>        -0.1829
     35 C24         1.3450   -2.6358    3.0846 C.3       1 <0>        -0.1470
     36 C25         2.4903   -1.6690    3.3919 C.3       1 <0>        -0.1681
     37 C26         1.4807   -3.1475    1.6492 C.3       1 <0>        -0.1494
     38 H3         -1.2183    2.7004    2.1034 H         1 <0>         0.0829
     39 H4         -2.9894    2.7818    1.9456 H         1 <0>         0.0864
     40 H5         -2.2538    2.3584    3.5102 H         1 <0>         0.0656
     41 H6         -3.0676    1.1667    0.1397 H         1 <0>         0.1435
     42 H7         -3.1327   -1.2056   -0.4985 H         1 <0>         0.1418
     43 H8         -2.3046   -2.9243    1.0288 H         1 <0>         0.1421
     44 H9         -1.2701   -3.5709    3.2473 H         1 <0>         0.1539
     45 H10        -0.3601   -2.7380    6.6902 H         1 <0>         0.1569
     46 H11        -0.7583   -4.0535    5.5592 H         1 <0>         0.1425
     47 H12         1.0917   -4.3488    7.2634 H         1 <0>         0.1421
     48 H13         1.7167   -5.3153    5.9057 H         1 <0>         0.1475
     49 H14         3.8062   -4.0451    5.9047 H         1 <0>         0.1095
     50 H15         3.1773   -2.9467    7.1561 H         1 <0>         0.0630
     51 H16         3.0212   -3.6967    9.4425 H         1 <0>         0.0553
     52 H17         1.7989   -4.8564    8.8664 H         1 <0>         0.0841
     53 H18         2.8156   -5.5543   11.0445 H         1 <0>         0.1053
     54 H19         3.1270   -6.7329    9.7463 H         1 <0>         0.0624
     55 H20         6.5722   -5.5900    9.3344 H         1 <0>         0.1079
     56 H21         5.3704   -6.7542    8.7251 H         1 <0>         0.0634
     57 H22         5.6083   -4.8926    7.1323 H         1 <0>         0.0926
     58 H23         5.2585   -3.7179    8.4241 H         1 <0>         0.0545
     59 H24         1.6328   -6.5965    1.5367 H         1 <0>         0.0863
     60 H25         0.2483   -7.3047    2.4027 H         1 <0>         0.1081
     61 H26         0.6062   -5.5686    2.5652 H         1 <0>         0.0615
     62 H27         3.2708   -8.4265    4.3064 H         1 <0>         0.0821
     63 H28         1.8701   -8.9928    3.3652 H         1 <0>         0.0957
     64 H29         3.2283   -8.1882    2.5430 H         1 <0>         0.0820
     65 H30         0.5333   -5.9700    5.0138 H         1 <0>         0.0560
     66 H31         0.4173   -7.7417    4.8868 H         1 <0>         0.1164
     67 H32         1.7578   -7.0003    5.7932 H         1 <0>         0.0921
     68 H33         0.3924   -2.1181    3.1973 H         1 <0>         0.1315
     69 H34         2.3862   -0.7752    2.7768 H         1 <0>         0.0824
     70 H35         2.4583   -1.3909    4.4453 H         1 <0>         0.0468
     71 H36         3.4424   -2.1522    3.1724 H         1 <0>         0.1019
     72 H37         0.7107   -3.8942    1.4552 H         1 <0>         0.0656
     73 H38         1.3636   -2.3158    0.9544 H         1 <0>         0.0869
     74 H39         2.4646   -3.5970    1.5152 H         1 <0>         0.0637
     75 H40         1.7107   -2.4651    5.5512 H         1 <0>         0.4308
@<TRIPOS>BOND
     1    1    2 1
     2    1   38 1
     3    1   39 1
     4    1   40 1
     5    2    7 ar
     6    2    3 ar
     7    3    4 ar
     8    3   41 1
     9    4    5 ar
    10    4   42 1
    11    5    6 ar
    12    5   43 1
    13    6   13 1
    14    6    7 ar
    15    7    8 1
    16    8    9 1
    17    8   10 am
    18   10   11 2
    19   10   12 1
    20   12   13 2
    21   12   14 1
    22   13   44 1
    23   14   15 1
    24   14   45 1
    25   14   46 1
    26   15   16 1
    27   15   24 1
    28   15   75 1
    29   16   17 1
    30   16   47 1
    31   16   48 1
    32   17   18 1
    33   17   49 1
    34   17   50 1
    35   18   23 1
    36   18   19 1
    37   19   20 1
    38   19   51 1
    39   19   52 1
    40   20   21 1
    41   20   53 1
    42   20   54 1
    43   21   22 1
    44   22   23 1
    45   22   55 1
    46   22   56 1
    47   23   57 1
    48   23   58 1
    49   24   25 1
    50   24   26 1
    51   24   35 1
    52   26   30 1
    53   26   27 2
    54   27   28 1
    55   28   29 2
    56   29   30 1
    57   30   31 1
    58   31   32 1
    59   31   33 1
    60   31   34 1
    61   32   59 1
    62   32   60 1
    63   32   61 1
    64   33   62 1
    65   33   63 1
    66   33   64 1
    67   34   65 1
    68   34   66 1
    69   34   67 1
    70   35   36 1
    71   35   37 1
    72   35   68 1
    73   36   69 1
    74   36   70 1
    75   36   71 1
    76   37   72 1
    77   37   73 1
    78   37   74 1
