@<TRIPOS>MOLECULE
ZINC46100803
   60    64     0     0     0
SMALL
USER_CHARGES

@<TRIPOS>ATOM
      1 C1         -0.0184    1.5028    0.0103 C.3       1 <0>        -0.0734
      2 C2          0.0021   -0.0041    0.0020 C.2       1 <0>         0.2456
      3 N1          0.0080   -0.7600   -1.0615 N.2       1 <0>        -0.4876
      4 C3          0.0278   -2.0492   -0.6909 C.2       1 <0>        -0.0066
      5 C4          0.0346   -2.1004    0.6542 C.2       1 <0>        -0.0626
      6 N2          0.0234   -0.8035    1.1011 N.pl3     1 <0>        -0.4125
      7 C5          0.0295   -0.3834    2.4348 C.ar      1 <0>         0.3515
      8 C6          0.0580   -1.3278    3.4535 C.ar      1 <0>        -0.1625
      9 C7          0.0642   -0.8987    4.7694 C.ar      1 <0>        -0.0347
     10 C8          0.0418    0.4662    5.0207 C.ar      1 <0>        -0.1654
     11 C9          0.0140    1.3485    3.9585 C.ar      1 <0>         0.1367
     12 N3          0.0138    0.9095    2.7146 N.ar      1 <0>        -0.4915
     13 C10         0.0943   -1.8907    5.9034 C.3       1 <0>         0.1793
     14 N4          1.4849   -2.1872    6.2562 N.am      1 <0>        -0.7456
     15 C11         1.7575   -3.0551    7.2507 C.2       1 <0>         0.7080
     16 O1          0.8493   -3.5919    7.8551 O.2       1 <0>        -0.5784
     17 N5          3.0369   -3.3278    7.5752 N.am      1 <0>        -0.6253
     18 C12         4.1312   -2.6810    6.8469 C.3       1 <0>         0.0726
     19 C13         3.3332   -4.2712    8.6562 C.3       1 <0>         0.1413
     20 C14         3.4459   -5.6851    8.0826 C.3       1 <0>        -0.0691
     21 C15         2.1241   -6.0720    7.4162 C.3       1 <0>        -0.0865
     22 C16         2.2368   -7.4859    6.8426 C.3       1 <0>        -0.0885
     23 C17         2.5463   -8.4711    7.9716 C.3       1 <0>        -0.1081
     24 C18         3.8681   -8.0842    8.6380 C.3       1 <0>        -0.0841
     25 C19         3.7554   -6.6703    9.2115 C.3       1 <0>        -0.1007
     26 C20         4.9930   -8.1261    7.6018 C.3       1 <0>        -0.1078
     27 C21         4.6835   -7.1409    6.4729 C.3       1 <0>        -0.0856
     28 C22         3.3617   -7.5278    5.8065 C.3       1 <0>        -0.1061
     29 C23         4.5709   -5.7270    7.0465 C.3       1 <0>        -0.1018
     30 H1          1.0042    1.8801    0.0026 H         1 <0>         0.0803
     31 H2         -0.5455    1.8639   -0.8728 H         1 <0>         0.0847
     32 H3         -0.5286    1.8543    0.9071 H         1 <0>         0.0997
     33 H4          0.0365   -2.8994   -1.3569 H         1 <0>         0.1789
     34 H5          0.0493   -2.9914    1.2644 H         1 <0>         0.1801
     35 H6          0.0745   -2.3825    3.2218 H         1 <0>         0.1438
     36 H7          0.0456    0.8343    6.0360 H         1 <0>         0.1474
     37 H8         -0.0035    2.4115    4.1488 H         1 <0>         0.1733
     38 H9         -0.4181   -1.4695    6.7684 H         1 <0>         0.0862
     39 H10        -0.4063   -2.8090    5.5963 H         1 <0>         0.0824
     40 H11         2.2095   -1.7590    5.7740 H         1 <0>         0.3970
     41 H12         4.3958   -1.7472    7.3430 H         1 <0>         0.0567
     42 H13         4.9977   -3.3421    6.8308 H         1 <0>         0.0814
     43 H14         3.8143   -2.4724    5.8251 H         1 <0>         0.0627
     44 H15         4.2749   -3.9956    9.1309 H         1 <0>         0.0766
     45 H16         2.5318   -4.2413    9.3943 H         1 <0>         0.0864
     46 H17         1.3227   -6.0421    8.1544 H         1 <0>         0.0675
     47 H18         1.9036   -5.3701    6.6119 H         1 <0>         0.0561
     48 H19         1.2951   -7.7615    6.3679 H         1 <0>         0.0655
     49 H20         1.7448   -8.4412    8.7097 H         1 <0>         0.0615
     50 H21         2.6265   -9.4784    7.5630 H         1 <0>         0.0596
     51 H22         4.0885   -8.7861    9.4423 H         1 <0>         0.0695
     52 H23         4.6971   -6.3947    9.6863 H         1 <0>         0.0622
     53 H24         2.9540   -6.6404    9.9497 H         1 <0>         0.0646
     54 H25         5.9347   -7.8505    8.0766 H         1 <0>         0.0607
     55 H26         5.0733   -9.1334    7.1932 H         1 <0>         0.0606
     56 H27         5.4850   -7.1708    5.7347 H         1 <0>         0.0667
     57 H28         3.4420   -8.5351    5.3979 H         1 <0>         0.0594
     58 H29         3.1412   -6.8259    5.0022 H         1 <0>         0.0563
     59 H30         4.3504   -5.0252    6.2422 H         1 <0>         0.0625
     60 H31         5.5126   -5.4514    7.5212 H         1 <0>         0.0593
@<TRIPOS>BOND
     1    1    2 1
     2    1   30 1
     3    1   31 1
     4    1   32 1
     5    2    6 1
     6    2    3 2
     7    3    4 1
     8    4    5 2
     9    4   33 1
    10    5    6 1
    11    5   34 1
    12    6    7 1
    13    7   12 ar
    14    7    8 ar
    15    8    9 ar
    16    8   35 1
    17    9   10 ar
    18    9   13 1
    19   10   11 ar
    20   10   36 1
    21   11   12 ar
    22   11   37 1
    23   13   14 1
    24   13   38 1
    25   13   39 1
    26   14   15 am
    27   14   40 1
    28   15   16 2
    29   15   17 am
    30   17   18 1
    31   17   19 1
    32   18   41 1
    33   18   42 1
    34   18   43 1
    35   19   20 1
    36   19   44 1
    37   19   45 1
    38   20   25 1
    39   20   29 1
    40   20   21 1
    41   21   22 1
    42   21   46 1
    43   21   47 1
    44   22   28 1
    45   22   23 1
    46   22   48 1
    47   23   24 1
    48   23   49 1
    49   23   50 1
    50   24   25 1
    51   24   26 1
    52   24   51 1
    53   25   52 1
    54   25   53 1
    55   26   27 1
    56   26   54 1
    57   26   55 1
    58   27   28 1
    59   27   29 1
    60   27   56 1
    61   28   57 1
    62   28   58 1
    63   29   59 1
    64   29   60 1
