@<TRIPOS>MOLECULE
ZINC56157667
   56    58     0     0     0
SMALL
USER_CHARGES

@<TRIPOS>ATOM
      1 C1         -2.4697   -0.5620    1.4613 C.3       1 <0>        -0.1113
      2 C2         -1.2429   -1.0185    0.7146 C.ar      1 <0>        -0.0654
      3 C3         -1.3743   -1.7572   -0.4452 C.ar      1 <0>        -0.1180
      4 C4         -0.2493   -2.1764   -1.1308 C.ar      1 <0>        -0.1094
      5 C5          1.0109   -1.8574   -0.6585 C.ar      1 <0>        -0.1145
      6 C6          1.1491   -1.1188    0.5000 C.ar      1 <0>        -0.0718
      7 C7          0.0208   -0.6921    1.1885 C.ar      1 <0>         0.1307
      8 N1          0.1573    0.0610    2.3599 N.am      1 <0>        -0.6753
      9 C8         -0.2607    1.3420    2.3900 C.2       1 <0>         0.5128
     10 O1         -0.8115    1.8230    1.4225 O.2       1 <0>        -0.5094
     11 C9         -0.0435    2.1765    3.6259 C.3       1 <0>         0.1366
     12 H1         -0.5527    1.7135    4.4711 H         1 <0>         0.1073
     13 C10         1.4547    2.2695    3.9217 C.3       1 <0>        -0.1674
     14 N2         -0.5826    3.5212    3.4081 N.pl3     1 <0>        -0.7269
     15 C11        -0.9822    4.2984    4.4976 C.ar      1 <0>         0.2473
     16 C12        -0.8634    3.7991    5.7892 C.ar      1 <0>        -0.2271
     17 C13        -1.2580    4.5674    6.8672 C.ar      1 <0>        -0.0430
     18 C14        -1.7723    5.8340    6.6653 C.ar      1 <0>        -0.2167
     19 C15        -1.8941    6.3387    5.3770 C.ar      1 <0>         0.2344
     20 C16        -1.4930    5.5721    4.2922 C.ar      1 <0>        -0.2281
     21 N3         -2.4155    7.6214    5.1737 N.am      1 <0>        -0.5697
     22 C17        -2.9732    8.4903    6.2208 C.3       1 <0>         0.0858
     23 C18        -3.3939    9.7625    5.4596 C.3       1 <0>         0.0910
     24 N4         -3.0285    9.4753    4.0644 N.am      1 <0>        -0.7370
     25 C19        -2.4807    8.2549    3.9953 C.2       1 <0>         0.6986
     26 O2         -2.0821    7.7649    2.9563 O.2       1 <0>        -0.5631
     27 C20         2.5225   -0.7720    1.0142 C.3       1 <0>        -0.0568
     28 C21         3.2993   -2.0585    1.3017 C.3       1 <0>        -0.1446
     29 C22         3.2688    0.0498   -0.0387 C.3       1 <0>        -0.1435
     30 H2         -2.8427    0.3610    1.0174 H         1 <0>         0.0778
     31 H3         -3.2394   -1.3314    1.4003 H         1 <0>         0.0662
     32 H4         -2.2144   -0.3854    2.5061 H         1 <0>         0.0586
     33 H5         -2.3570   -2.0079   -0.8166 H         1 <0>         0.1253
     34 H6         -0.3547   -2.7545   -2.0370 H         1 <0>         0.1250
     35 H7          1.8878   -2.1866   -1.1962 H         1 <0>         0.1253
     36 H8          0.5527   -0.3388    3.1502 H         1 <0>         0.4081
     37 H9          1.6118    2.8732    4.8156 H         1 <0>         0.0776
     38 H10         1.8559    1.2691    4.0838 H         1 <0>         0.0690
     39 H11         1.9639    2.7326    3.0765 H         1 <0>         0.0669
     40 H12        -0.6621    3.8718    2.5071 H         1 <0>         0.4112
     41 H13        -0.4625    2.8092    5.9502 H         1 <0>         0.1204
     42 H14        -1.1647    4.1772    7.8699 H         1 <0>         0.1259
     43 H15        -2.0802    6.4320    7.5103 H         1 <0>         0.1205
     44 H16        -1.5823    5.9642    3.2899 H         1 <0>         0.1570
     45 H17        -3.8387    8.0199    6.6875 H         1 <0>         0.0929
     46 H18        -2.2147    8.7245    6.9677 H         1 <0>         0.0924
     47 H19        -4.4682    9.9238    5.5483 H         1 <0>         0.0891
     48 H20        -2.8442   10.6284    5.8285 H         1 <0>         0.0888
     49 H21        -3.1596   10.0758    3.3140 H         1 <0>         0.4341
     50 H22         2.4310   -0.1902    1.9314 H         1 <0>         0.0762
     51 H23         4.2927   -1.8076    1.6736 H         1 <0>         0.0597
     52 H24         2.7676   -2.6439    2.0518 H         1 <0>         0.0555
     53 H25         3.3909   -2.6403    0.3845 H         1 <0>         0.0585
     54 H26         2.7154    0.9663   -0.2435 H         1 <0>         0.0550
     55 H27         4.2622    0.3006    0.3332 H         1 <0>         0.0592
     56 H28         3.3604   -0.5320   -0.9559 H         1 <0>         0.0581
@<TRIPOS>BOND
     1    1    2 1
     2    1   30 1
     3    1   31 1
     4    1   32 1
     5    2    7 ar
     6    2    3 ar
     7    3    4 ar
     8    3   33 1
     9    4    5 ar
    10    4   34 1
    11    5    6 ar
    12    5   35 1
    13    6    7 ar
    14    6   27 1
    15    7    8 1
    16    8    9 am
    17    8   36 1
    18    9   10 2
    19    9   11 1
    20   11   12 1
    21   11   13 1
    22   11   14 1
    23   13   37 1
    24   13   38 1
    25   13   39 1
    26   14   15 1
    27   14   40 1
    28   15   20 ar
    29   15   16 ar
    30   16   17 ar
    31   16   41 1
    32   17   18 ar
    33   17   42 1
    34   18   19 ar
    35   18   43 1
    36   19   20 ar
    37   19   21 1
    38   20   44 1
    39   21   25 am
    40   21   22 1
    41   22   23 1
    42   22   45 1
    43   22   46 1
    44   23   24 1
    45   23   47 1
    46   23   48 1
    47   24   25 am
    48   24   49 1
    49   25   26 2
    50   27   28 1
    51   27   29 1
    52   27   50 1
    53   28   51 1
    54   28   52 1
    55   28   53 1
    56   29   54 1
    57   29   55 1
    58   29   56 1
