@<TRIPOS>MOLECULE
ZINC42896232
   50    51     0     0     0
SMALL
USER_CHARGES

@<TRIPOS>ATOM
      1 C1         -0.0187    1.5258    0.0104 C.3       1 <0>        -0.1453
      2 C2          0.0021   -0.0041    0.0020 C.3       1 <0>        -0.0617
      3 H1          0.5123   -0.3556   -0.8948 H         1 <0>         0.0856
      4 C3         -1.4333   -0.5336    0.0129 C.3       1 <0>         0.1470
      5 N1         -2.1054   -0.1483   -1.2305 N.am      1 <0>        -0.7429
      6 C4         -3.3867   -0.5081   -1.4434 C.2       1 <0>         0.7075
      7 O1         -3.9848   -1.1525   -0.6036 O.2       1 <0>        -0.5856
      8 N2         -4.0050   -0.1536   -2.5873 N.am      1 <0>        -0.7372
      9 C5         -5.3977   -0.5447   -2.8188 C.3       1 <0>         0.1393
     10 H2         -5.9417   -0.5273   -1.8744 H         1 <0>         0.1130
     11 C6         -5.4401   -1.9570   -3.4057 C.3       1 <0>         0.0683
     12 O2         -4.8285   -1.9546   -4.6972 O.3       1 <0>        -0.5553
     13 C7         -6.0463    0.4346   -3.7991 C.3       1 <0>         0.1403
     14 H3         -7.1050    0.1971   -3.9030 H         1 <0>         0.1306
     15 C8         -5.8957    1.8407   -3.2781 C.ar      1 <0>        -0.0635
     16 C9         -4.7422    2.5555   -3.5415 C.ar      1 <0>        -0.1120
     17 C10        -4.6040    3.8452   -3.0636 C.ar      1 <0>        -0.0477
     18 C11        -5.6194    4.4203   -2.3227 C.ar      1 <0>        -0.0485
     19 C12        -6.7733    3.7058   -2.0600 C.ar      1 <0>        -0.0478
     20 C13        -6.9133    2.4176   -2.5416 C.ar      1 <0>        -0.1068
     21 N3         -5.4710    5.8010   -1.8102 N.pl3     1 <0>         0.0319
     22 O3         -4.4617    6.4257   -2.0396 O.2       1 <0>        -0.1556
     23 O4         -6.3592    6.3039   -1.1621 O.3       1 <0>        -0.1552
     24 O5         -5.4069    0.3275   -5.0726 O.3       1 <0>        -0.5176
     25 C14         0.7309   -0.5033    1.2229 C.ar      1 <0>        -0.0794
     26 C15         0.2630   -0.1872    2.4847 C.ar      1 <0>        -0.1121
     27 C16         0.9315   -0.6452    3.6046 C.ar      1 <0>        -0.1170
     28 C17         2.0678   -1.4195    3.4627 C.ar      1 <0>        -0.1200
     29 C18         2.5353   -1.7363    2.2010 C.ar      1 <0>        -0.1180
     30 C19         1.8643   -1.2820    1.0811 C.ar      1 <0>        -0.1133
     31 H4          1.0039    1.9031    0.0027 H         1 <0>         0.0626
     32 H5         -0.5459    1.8868   -0.8726 H         1 <0>         0.0570
     33 H6         -0.5289    1.8773    0.9072 H         1 <0>         0.0606
     34 H7         -1.4190   -1.6203    0.0965 H         1 <0>         0.0695
     35 H8         -1.9701   -0.1109    0.8621 H         1 <0>         0.0695
     36 H9         -1.6283    0.3658   -1.9006 H         1 <0>         0.3957
     37 H10        -3.5279    0.3605   -3.2574 H         1 <0>         0.3913
     38 H11        -4.9003   -2.6396   -2.7493 H         1 <0>         0.0549
     39 H12        -6.4765   -2.2824   -3.4951 H         1 <0>         0.0565
     40 H13        -4.8197   -2.8194   -5.1299 H         1 <0>         0.3777
     41 H14        -3.9488    2.1062   -4.1204 H         1 <0>         0.1397
     42 H15        -3.7025    4.4034   -3.2689 H         1 <0>         0.1555
     43 H16        -7.5665    4.1550   -1.4808 H         1 <0>         0.1566
     44 H17        -7.8163    1.8607   -2.3395 H         1 <0>         0.1509
     45 H18        -4.4606    0.5255   -5.0555 H         1 <0>         0.3699
     46 H19        -0.6248    0.4177    2.5955 H         1 <0>         0.1214
     47 H20         0.5663   -0.3977    4.5903 H         1 <0>         0.1230
     48 H21         2.5906   -1.7767    4.3377 H         1 <0>         0.1223
     49 H22         3.4233   -2.3410    2.0902 H         1 <0>         0.1230
     50 H23         2.2274   -1.5326    0.0953 H         1 <0>         0.1216
@<TRIPOS>BOND
     1    1    2 1
     2    1   31 1
     3    1   32 1
     4    1   33 1
     5    2    3 1
     6    2    4 1
     7    2   25 1
     8    4    5 1
     9    4   34 1
    10    4   35 1
    11    5    6 am
    12    5   36 1
    13    6    7 2
    14    6    8 am
    15    8    9 1
    16    8   37 1
    17    9   10 1
    18    9   11 1
    19    9   13 1
    20   11   12 1
    21   11   38 1
    22   11   39 1
    23   12   40 1
    24   13   14 1
    25   13   15 1
    26   13   24 1
    27   15   20 ar
    28   15   16 ar
    29   16   17 ar
    30   16   41 1
    31   17   18 ar
    32   17   42 1
    33   18   19 ar
    34   18   21 1
    35   19   20 ar
    36   19   43 1
    37   20   44 1
    38   21   22 2
    39   21   23 1
    40   24   45 1
    41   25   30 ar
    42   25   26 ar
    43   26   27 ar
    44   26   46 1
    45   27   28 ar
    46   27   47 1
    47   28   29 ar
    48   28   48 1
    49   29   30 ar
    50   29   49 1
    51   30   50 1
