@<TRIPOS>MOLECULE
ZINC16042101
   55    59     0     0     0
SMALL
USER_CHARGES

@<TRIPOS>ATOM
      1 C1          2.2026    0.9889    0.8736 C.3       1 <0>        -0.1275
      2 C2          1.5987   -0.3681    0.6188 C.ar      1 <0>        -0.0107
      3 C3          1.7191   -0.9558   -0.6256 C.ar      1 <0>        -0.1093
      4 C4          1.1654   -2.2007   -0.8602 C.ar      1 <0>        -0.0346
      5 C5          0.4896   -2.8613    0.1495 C.ar      1 <0>        -0.0469
      6 C6          0.3660   -2.2789    1.3956 C.ar      1 <0>        -0.0301
      7 C7          0.9260   -1.0313    1.6358 C.ar      1 <0>         0.1084
      8 N1          0.8076   -0.4401    2.9016 N.am      1 <0>        -0.5225
      9 C8         -0.2190    0.3490    3.2388 C.2       1 <0>         0.5413
     10 O1         -1.1472    0.6383    2.5147 O.2       1 <0>        -0.4555
     11 C9         -0.0418    0.8232    4.6630 C.3       1 <0>        -0.1191
     12 H1         -0.0105    1.9099    4.7427 H         1 <0>         0.1507
     13 C10        -1.1368    0.1947    5.5503 C.3       1 <0>         0.0826
     14 H2         -2.0529    0.0509    4.9773 H         1 <0>         0.1163
     15 N2         -0.5799   -1.1177    5.9731 N.3       1 <0>        -0.6187
     16 C11         0.8494   -0.8422    6.2113 C.3       1 <0>         0.1220
     17 C12         1.2872    0.1481    5.1035 C.3       1 <0>        -0.0977
     18 H3          2.0351    0.8658    5.4408 H         1 <0>         0.1490
     19 C13         1.7090   -0.6235    3.8732 C.2       1 <0>         0.5408
     20 O2          2.7099   -1.3011    3.7808 O.2       1 <0>        -0.4387
     21 C14         1.6661   -2.1024    6.1849 C.ar      1 <0>        -0.1381
     22 C15         1.8844   -3.0718    5.2313 C.ar      1 <0>        -0.0168
     23 C16         2.7116   -4.1451    5.5113 C.ar      1 <0>        -0.1361
     24 C17         3.3182   -4.2418    6.7505 C.ar      1 <0>        -0.0704
     25 C18         3.1036   -3.2727    7.7083 C.ar      1 <0>        -0.1392
     26 C19         2.2730   -2.1885    7.4345 C.ar      1 <0>         0.1457
     27 N3          1.9072   -1.0970    8.2254 N.am      1 <0>        -0.6529
     28 C20         1.0736   -0.2587    7.5797 C.2       1 <0>         0.5097
     29 O3          0.5962    0.7670    8.0167 O.2       1 <0>        -0.4695
     30 C21        -1.4063    1.0787    6.7696 C.3       1 <0>        -0.1410
     31 C22        -2.5520    2.0434    6.4570 C.3       1 <0>        -0.0859
     32 S1         -2.8714    3.0915    7.9026 S.3       1 <0>        -0.2570
     33 C23        -4.2371    4.1626    7.3749 C.3       1 <0>        -0.1237
     34 N4         -0.1023   -4.1938   -0.1058 N.pl3     1 <0>         0.0339
     35 O4          0.0052   -4.7041   -1.1965 O.2       1 <0>        -0.1491
     36 O5         -0.6931   -4.7719    0.7764 O.3       1 <0>        -0.1521
     37 H4          3.2272    0.8703    1.2259 H         1 <0>         0.0913
     38 H5          2.2007    1.5668   -0.0505 H         1 <0>         0.0888
     39 H6          1.6165    1.5111    1.6299 H         1 <0>         0.0689
     40 H7          2.2460   -0.4421   -1.4161 H         1 <0>         0.1594
     41 H8          1.2604   -2.6580   -1.8340 H         1 <0>         0.1629
     42 H9         -0.1618   -2.7953    2.1837 H         1 <0>         0.1587
     43 H10        -1.0296   -1.4474    6.8140 H         1 <0>         0.3604
     44 H11         1.4093   -2.9945    4.2645 H         1 <0>         0.1175
     45 H12         2.8828   -4.9057    4.7640 H         1 <0>         0.1308
     46 H13         3.9628   -5.0803    6.9693 H         1 <0>         0.1345
     47 H14         3.5811   -3.3548    8.6735 H         1 <0>         0.1295
     48 H15         2.2172   -0.9588    9.1341 H         1 <0>         0.4185
     49 H16        -1.6799    0.4527    7.6189 H         1 <0>         0.0789
     50 H17        -0.5084    1.6473    7.0117 H         1 <0>         0.1262
     51 H18        -2.2783    2.6694    5.6076 H         1 <0>         0.0820
     52 H19        -3.4499    1.4748    6.2149 H         1 <0>         0.0800
     53 H20        -5.0995    3.5495    7.1136 H         1 <0>         0.0759
     54 H21        -4.5042    4.8378    8.1878 H         1 <0>         0.1022
     55 H22        -3.9280    4.7441    6.5063 H         1 <0>         0.0763
@<TRIPOS>BOND
     1    1    2 1
     2    1   37 1
     3    1   38 1
     4    1   39 1
     5    2    7 ar
     6    2    3 ar
     7    3    4 ar
     8    3   40 1
     9    4    5 ar
    10    4   41 1
    11    5    6 ar
    12    5   34 1
    13    6    7 ar
    14    6   42 1
    15    7    8 1
    16    8   19 am
    17    8    9 am
    18    9   10 2
    19    9   11 1
    20   11   12 1
    21   11   17 1
    22   11   13 1
    23   13   14 1
    24   13   15 1
    25   13   30 1
    26   15   16 1
    27   15   43 1
    28   16   28 1
    29   16   17 1
    30   16   21 1
    31   17   18 1
    32   17   19 1
    33   19   20 2
    34   21   26 ar
    35   21   22 ar
    36   22   23 ar
    37   22   44 1
    38   23   24 ar
    39   23   45 1
    40   24   25 ar
    41   24   46 1
    42   25   26 ar
    43   25   47 1
    44   26   27 1
    45   27   28 am
    46   27   48 1
    47   28   29 2
    48   30   31 1
    49   30   49 1
    50   30   50 1
    51   31   32 1
    52   31   51 1
    53   31   52 1
    54   32   33 1
    55   33   53 1
    56   33   54 1
    57   33   55 1
    58   34   35 2
    59   34   36 1
