@<TRIPOS>MOLECULE
ZINC11999693
   55    59     0     0     0
SMALL
USER_CHARGES
2-pyrrolidin-1-yl-N-[[2-(1,2,4-triazol-1-yl)phenyl]methyl]-5,6,7,8-tetrahydroquinazoline-4-carboxamide
@<TRIPOS>ATOM
      1 C1          5.3271   -3.1457    1.1011 C.ar      1 <0>        -0.1209
      2 C2          4.5564   -3.7662    2.0674 C.ar      1 <0>        -0.0825
      3 C3          3.3170   -4.2796    1.7395 C.ar      1 <0>        -0.1353
      4 C4          2.8424   -4.1672    0.4395 C.ar      1 <0>         0.1649
      5 C5          3.6204   -3.5486   -0.5295 C.ar      1 <0>        -0.1066
      6 C6          4.8596   -3.0374   -0.1955 C.ar      1 <0>        -0.0765
      7 C7          3.1112   -3.4292   -1.9428 C.3       1 <0>         0.1604
      8 N1          2.1692   -2.3106   -2.0295 N.am      1 <0>        -0.6885
      9 C8          1.5828   -2.0131   -3.2061 C.2       1 <0>         0.5761
     10 O1          1.8355   -2.6725   -4.1945 O.2       1 <0>        -0.5157
     11 C9          0.6282   -0.8794   -3.2940 C.ar      1 <0>         0.1487
     12 C10         0.0146   -0.5629   -4.5108 C.ar      1 <0>        -0.1451
     13 C11        -0.8690    0.4962   -4.5469 C.ar      1 <0>         0.2049
     14 N2         -1.1001    1.1791   -3.4327 N.ar      1 <0>        -0.5081
     15 C12        -0.5038    0.8586   -2.2952 C.ar      1 <0>         0.4794
     16 N3          0.3499   -0.1492   -2.2190 N.ar      1 <0>        -0.5283
     17 N4         -0.7759    1.6001   -1.1582 N.pl3     1 <0>        -0.4388
     18 C13        -0.0127    1.0858    0.0080 C.3       1 <0>         0.0468
     19 C14        -0.7824    1.6071    1.2405 C.3       1 <0>        -0.1272
     20 C15        -2.2232    1.8500    0.7362 C.3       1 <0>        -0.1251
     21 C16        -2.1986    1.4551   -0.7560 C.3       1 <0>         0.0517
     22 C17        -1.5907    0.9054   -5.8021 C.3       1 <0>        -0.0713
     23 C18        -0.8998    0.3171   -7.0314 C.3       1 <0>        -0.1214
     24 C19        -0.7093   -1.1879   -6.8100 C.3       1 <0>        -0.1256
     25 C20         0.3465   -1.3879   -5.7232 C.3       1 <0>        -0.0742
     26 N5          1.5819   -4.6818    0.1050 N.pl3     1 <0>        -0.3321
     27 C21         0.7207   -5.3093    0.9295 C.2       1 <0>         0.2615
     28 N6         -0.3413   -5.6320    0.2366 N.2       1 <0>        -0.5312
     29 C22        -0.1933   -5.2381   -1.0278 C.2       1 <0>         0.2051
     30 N7          0.9679   -4.6514   -1.1578 N.2       1 <0>        -0.2985
     31 H1          6.2962   -2.7454    1.3598 H         1 <0>         0.1350
     32 H2          4.9241   -3.8490    3.0795 H         1 <0>         0.1387
     33 H3          2.7158   -4.7643    2.4945 H         1 <0>         0.1350
     34 H4          5.4637   -2.5524   -0.9480 H         1 <0>         0.1369
     35 H5          2.6059   -4.3525   -2.2261 H         1 <0>         0.1068
     36 H6          3.9490   -3.2518   -2.6171 H         1 <0>         0.0756
     37 H7          1.9674   -1.7841   -1.2403 H         1 <0>         0.4058
     38 H8          0.0021   -0.0041    0.0020 H         1 <0>         0.0682
     39 H9          1.0039    1.4790    0.0004 H         1 <0>         0.0875
     40 H10        -0.7781    0.8594    2.0337 H         1 <0>         0.0751
     41 H11        -0.3425    2.5391    1.5953 H         1 <0>         0.0773
     42 H12        -2.4898    2.9012    0.8453 H         1 <0>         0.0797
     43 H13        -2.9265    1.2215    1.2826 H         1 <0>         0.0763
     44 H14        -2.8286    2.1281   -1.3377 H         1 <0>         0.0969
     45 H15        -2.5266    0.4235   -0.8836 H         1 <0>         0.0498
     46 H16        -2.6189    0.5460   -5.7600 H         1 <0>         0.0937
     47 H17        -1.5951    1.9928   -5.8770 H         1 <0>         0.0939
     48 H18         0.0713    0.7928   -7.1682 H         1 <0>         0.0691
     49 H19        -1.5160    0.4820   -7.9152 H         1 <0>         0.0789
     50 H20        -0.3745   -1.6549   -7.7362 H         1 <0>         0.0757
     51 H21        -1.6507   -1.6366   -6.4930 H         1 <0>         0.0657
     52 H22         1.3211   -1.0875   -6.1078 H         1 <0>         0.0842
     53 H23         0.3780   -2.4413   -5.4448 H         1 <0>         0.1070
     54 H24         0.8783   -5.5086    1.9792 H         1 <0>         0.2218
     55 H25        -0.9162   -5.3799   -1.8176 H         1 <0>         0.2191
@<TRIPOS>BOND
     1    1    6 ar
     2    1    2 ar
     3    1   31 1
     4    2    3 ar
     5    2   32 1
     6    3    4 ar
     7    3   33 1
     8    4    5 ar
     9    4   26 1
    10    5    6 ar
    11    5    7 1
    12    6   34 1
    13    7    8 1
    14    7   35 1
    15    7   36 1
    16    8    9 am
    17    8   37 1
    18    9   10 2
    19    9   11 1
    20   11   16 ar
    21   11   12 ar
    22   12   25 1
    23   12   13 ar
    24   13   14 ar
    25   13   22 1
    26   14   15 ar
    27   15   16 ar
    28   15   17 1
    29   17   21 1
    30   17   18 1
    31   18   19 1
    32   18   38 1
    33   18   39 1
    34   19   20 1
    35   19   40 1
    36   19   41 1
    37   20   21 1
    38   20   42 1
    39   20   43 1
    40   21   44 1
    41   21   45 1
    42   22   23 1
    43   22   46 1
    44   22   47 1
    45   23   24 1
    46   23   48 1
    47   23   49 1
    48   24   25 1
    49   24   50 1
    50   24   51 1
    51   25   52 1
    52   25   53 1
    53   26   30 1
    54   26   27 1
    55   27   28 2
    56   27   54 1
    57   28   29 1
    58   29   30 2
    59   29   55 1
