@<TRIPOS>MOLECULE
ZINC42638070
   53    54     0     0     0
SMALL
USER_CHARGES

@<TRIPOS>ATOM
      1 C1         -0.1337    1.6268   -0.2676 C.3       1 <0>        -0.1346
      2 C2          0.2289    0.1642   -0.2485 C.ar      1 <0>        -0.0152
      3 C3         -0.6576   -0.7730   -0.7471 C.ar      1 <0>        -0.0967
      4 C4         -0.3282   -2.1139   -0.7315 C.ar      1 <0>        -0.0644
      5 C5          0.8948   -2.5211   -0.2142 C.ar      1 <0>         0.1192
      6 C6          1.7826   -1.5777    0.2856 C.ar      1 <0>        -0.0717
      7 C7          1.4493   -0.2374    0.2623 C.ar      1 <0>        -0.0264
      8 N1          2.3973    0.7695    0.7898 N.pl3     1 <0>         0.0249
      9 O1          2.5125    1.8389    0.2378 O.2       1 <0>        -0.1315
     10 O2          3.0566    0.5224    1.7726 O.3       1 <0>        -0.1467
     11 N2          1.2314   -3.8791   -0.1965 N.am      1 <0>        -0.6443
     12 C8          0.8490   -4.6815   -1.2097 C.2       1 <0>         0.5062
     13 O3          0.1440   -4.2458   -2.0953 O.2       1 <0>        -0.4990
     14 C9          1.2972   -6.1199   -1.2421 C.3       1 <0>         0.0098
     15 H1          2.2770   -6.2058   -0.7723 H         1 <0>         0.1623
     16 C10         0.2898   -6.9853   -0.4824 C.3       1 <0>        -0.1825
     17 N3          1.3809   -6.5754   -2.6362 N.4       1 <0>        -0.3733
     18 C11         1.7285   -8.0012   -2.6634 C.3       1 <0>        -0.0094
     19 C12         1.7376   -8.5003   -4.1099 C.3       1 <0>        -0.1311
     20 C13         2.7722   -7.7056   -4.9119 C.3       1 <0>        -0.1228
     21 C14         2.4423   -6.2133   -4.8149 C.3       1 <0>        -0.1313
     22 C15         2.4071   -5.7990   -3.3423 C.3       1 <0>        -0.0082
     23 C16         2.7317   -8.1379   -6.3550 C.2       1 <0>         0.5157
     24 O4          1.6818   -8.4813   -6.8558 O.2       1 <0>        -0.5255
     25 N4          3.8620   -8.1430   -7.0890 N.am      1 <0>        -0.6150
     26 C17         3.8055   -8.4566   -8.5189 C.3       1 <0>         0.0770
     27 C18         5.1472   -7.8348   -6.4569 C.3       1 <0>         0.0716
     28 H2          0.2933    2.0954   -1.1543 H         1 <0>         0.1018
     29 H3         -1.2184    1.7321   -0.2876 H         1 <0>         0.0862
     30 H4          0.2619    2.1109    0.6253 H         1 <0>         0.0788
     31 H5         -1.6086   -0.4558   -1.1489 H         1 <0>         0.1578
     32 H6         -1.0210   -2.8453   -1.1207 H         1 <0>         0.1562
     33 H7          2.7344   -1.8911    0.6884 H         1 <0>         0.1544
     34 H8          1.7400   -4.2431    0.5449 H         1 <0>         0.4245
     35 H9         -0.6900   -6.8994   -0.9521 H         1 <0>         0.0940
     36 H10         0.6140   -8.0257   -0.5058 H         1 <0>         0.1042
     37 H11         0.2277   -6.6473    0.5520 H         1 <0>         0.1133
     38 H12         2.7162   -8.1424   -2.2246 H         1 <0>         0.1351
     39 H13         0.9930   -8.5651   -2.0896 H         1 <0>         0.1429
     40 H14         1.9976   -9.5587   -4.1282 H         1 <0>         0.1201
     41 H15         0.7501   -8.3598   -4.5496 H         1 <0>         0.1051
     42 H16         3.7667   -7.8863   -4.5039 H         1 <0>         0.1109
     43 H17         3.2060   -5.6370   -5.3370 H         1 <0>         0.1178
     44 H18         1.4695   -6.0254   -5.2692 H         1 <0>         0.1006
     45 H19         2.1726   -4.7370   -3.2696 H         1 <0>         0.1331
     46 H20         3.3804   -5.9871   -2.8890 H         1 <0>         0.1342
     47 H21         3.6574   -7.5380   -9.0867 H         1 <0>         0.0620
     48 H22         4.7402   -8.9264   -8.8251 H         1 <0>         0.0778
     49 H23         2.9767   -9.1387   -8.7088 H         1 <0>         0.0823
     50 H24         5.3830   -8.6025   -5.7199 H         1 <0>         0.0651
     51 H25         5.9286   -7.8083   -7.2164 H         1 <0>         0.0882
     52 H26         5.0864   -6.8645   -5.9641 H         1 <0>         0.0632
     53 H27         0.4885   -6.4402   -3.0873 H         1 <0>         0.4333
@<TRIPOS>BOND
     1    1    2 1
     2    1   28 1
     3    1   29 1
     4    1   30 1
     5    2    7 ar
     6    2    3 ar
     7    3    4 ar
     8    3   31 1
     9    4    5 ar
    10    4   32 1
    11    5    6 ar
    12    5   11 1
    13    6    7 ar
    14    6   33 1
    15    7    8 1
    16    8    9 2
    17    8   10 1
    18   11   12 am
    19   11   34 1
    20   12   13 2
    21   12   14 1
    22   14   15 1
    23   14   16 1
    24   14   17 1
    25   16   35 1
    26   16   36 1
    27   16   37 1
    28   17   22 1
    29   17   18 1
    30   17   53 1
    31   18   19 1
    32   18   38 1
    33   18   39 1
    34   19   20 1
    35   19   40 1
    36   19   41 1
    37   20   21 1
    38   20   23 1
    39   20   42 1
    40   21   22 1
    41   21   43 1
    42   21   44 1
    43   22   45 1
    44   22   46 1
    45   23   24 2
    46   23   25 am
    47   25   26 1
    48   25   27 1
    49   26   47 1
    50   26   48 1
    51   26   49 1
    52   27   50 1
    53   27   51 1
    54   27   52 1
