@<TRIPOS>MOLECULE
ZINC39599306
   56    58     0     0     0
SMALL
USER_CHARGES

@<TRIPOS>ATOM
      1 C1         -0.0178    1.4608    0.0101 C.3       1 <0>         0.0637
      2 N1          0.0021   -0.0041    0.0020 N.am      1 <0>        -0.6143
      3 C2          0.0224   -0.6841    1.1654 C.2       1 <0>         0.5187
      4 O1          0.0388   -1.8968    1.1588 O.2       1 <0>        -0.4993
      5 C3          0.0246    0.0623    2.4746 C.3       1 <0>         0.0565
      6 O2          0.0476   -0.8721    3.5556 O.3       1 <0>        -0.3456
      7 C4          0.0525   -0.3637    4.8037 C.2       1 <0>         0.5093
      8 O3          0.0376    0.8401    4.9695 O.2       1 <0>        -0.4736
      9 C5          0.0758   -1.2671    5.9668 C.ar      1 <0>        -0.2076
     10 C6          0.0987   -2.6525    5.7811 C.ar      1 <0>        -0.0159
     11 C7          0.1204   -3.4917    6.8729 C.ar      1 <0>        -0.2393
     12 C8          0.1196   -2.9704    8.1575 C.ar      1 <0>        -0.0321
     13 C9          0.0972   -1.6057    8.3578 C.ar      1 <0>        -0.2701
     14 C10         0.0810   -0.7423    7.2691 C.ar      1 <0>         0.3341
     15 N2          0.0642    0.6315    7.4680 N.2       1 <0>        -1.0361
     16 S1          0.0704    1.2457    9.0059 S.o2      1 <0>         2.5967
     17 O4         -1.1644    0.8678    9.5991 O.2       1 <0>        -1.0246
     18 O5          1.3260    0.9017    9.5755 O.2       1 <0>        -1.0246
     19 C11         0.0452    3.0019    8.8657 C.ar      1 <0>        -0.6234
     20 C12         1.2326    3.7061    8.7936 C.ar      1 <0>         0.0068
     21 C13         1.2141    5.0836    8.6832 C.ar      1 <0>        -0.1791
     22 C14         0.0056    5.7583    8.6447 C.ar      1 <0>         0.1327
     23 C15        -1.1830    5.0519    8.7169 C.ar      1 <0>        -0.1791
     24 C16        -1.1621    3.6740    8.8221 C.ar      1 <0>         0.0068
     25 F1         -0.0137    7.1048    8.5372 F         1 <0>        -0.1397
     26 C17        -0.0001   -0.7297   -1.2707 C.3       1 <0>         0.2844
     27 C18        -1.2380   -1.6258   -1.3447 C.3       1 <0>        -0.1291
     28 C19        -1.2403   -2.3836   -2.6739 C.3       1 <0>        -0.1213
     29 C20        -1.2649   -1.3832   -3.8312 C.3       1 <0>        -0.1223
     30 C21        -0.0270   -0.4871   -3.7572 C.3       1 <0>        -0.1214
     31 C22        -0.0247    0.2707   -2.4280 C.3       1 <0>        -0.1183
     32 C23         1.2123   -1.5591   -1.3647 C.1       1 <0>         0.2076
     33 N3          2.1480   -2.1992   -1.4372 N.1       1 <0>        -0.4129
     34 H1          1.0048    1.8381    0.0023 H         1 <0>         0.0637
     35 H2         -0.5450    1.8219   -0.8730 H         1 <0>         0.0856
     36 H3         -0.5280    1.8123    0.9069 H         1 <0>         0.0839
     37 H4          0.9065    0.7007    2.5274 H         1 <0>         0.0933
     38 H5         -0.8732    0.6764    2.5442 H         1 <0>         0.0958
     39 H6          0.0990   -3.0643    4.7827 H         1 <0>         0.1224
     40 H7          0.1377   -4.5617    6.7276 H         1 <0>         0.1105
     41 H8          0.1364   -3.6371    9.0070 H         1 <0>         0.1092
     42 H9          0.0968   -1.2078    9.3619 H         1 <0>         0.1061
     43 H10         2.1751    3.1797    8.8240 H         1 <0>         0.1465
     44 H11         2.1419    5.6336    8.6273 H         1 <0>         0.1392
     45 H12        -2.1262    5.5771    8.6873 H         1 <0>         0.1393
     46 H13        -2.0892    3.1225    8.8739 H         1 <0>         0.1468
     47 H14        -1.2205   -2.3385   -0.5202 H         1 <0>         0.0960
     48 H15        -2.1358   -1.0116   -1.2751 H         1 <0>         0.0857
     49 H16        -0.3425   -2.9977   -2.7435 H         1 <0>         0.0620
     50 H17        -2.1222   -3.0220   -2.7266 H         1 <0>         0.0748
     51 H18        -1.2665   -1.9231   -4.7781 H         1 <0>         0.0668
     52 H19        -2.1627   -0.7690   -3.7616 H         1 <0>         0.0692
     53 H20         0.8708   -1.1013   -3.8268 H         1 <0>         0.0635
     54 H21        -0.0445    0.2256   -4.5817 H         1 <0>         0.0765
     55 H22        -0.9225    0.8849   -2.3584 H         1 <0>         0.0951
     56 H23         0.8572    0.9091   -2.3753 H         1 <0>         0.0806
@<TRIPOS>BOND
     1    1    2 1
     2    1   34 1
     3    1   35 1
     4    1   36 1
     5    2    3 am
     6    2   26 1
     7    3    4 2
     8    3    5 1
     9    5    6 1
    10    5   37 1
    11    5   38 1
    12    6    7 1
    13    7    8 2
    14    7    9 1
    15    9   14 ar
    16    9   10 ar
    17   10   11 ar
    18   10   39 1
    19   11   12 ar
    20   11   40 1
    21   12   13 ar
    22   12   41 1
    23   13   14 ar
    24   13   42 1
    25   14   15 1
    26   15   16 1
    27   16   17 2
    28   16   18 2
    29   16   19 1
    30   19   24 ar
    31   19   20 ar
    32   20   21 ar
    33   20   43 1
    34   21   22 ar
    35   21   44 1
    36   22   23 ar
    37   22   25 1
    38   23   24 ar
    39   23   45 1
    40   24   46 1
    41   26   31 1
    42   26   27 1
    43   26   32 1
    44   27   28 1
    45   27   47 1
    46   27   48 1
    47   28   29 1
    48   28   49 1
    49   28   50 1
    50   29   30 1
    51   29   51 1
    52   29   52 1
    53   30   31 1
    54   30   53 1
    55   30   54 1
    56   31   55 1
    57   31   56 1
    58   32   33 3
