@<TRIPOS>MOLECULE
ZINC16013214
   56    61     0     0     0
SMALL
USER_CHARGES

@<TRIPOS>ATOM
      1 C1         -0.0184    1.5028    0.0103 C.3       1 <0>        -0.1128
      2 C2          0.0021   -0.0041    0.0020 C.ar      1 <0>        -0.0887
      3 C3          0.0058   -0.6911   -1.1994 C.ar      1 <0>        -0.0569
      4 C4          0.0252   -2.0679   -1.2061 C.ar      1 <0>        -0.1237
      5 C5          0.0430   -2.7831   -0.0126 C.ar      1 <0>         0.1680
      6 C6          0.0389   -2.0840    1.1931 C.ar      1 <0>        -0.0503
      7 C7          0.0229   -0.7033    1.1945 C.ar      1 <0>        -0.0658
      8 Cl1         0.0600   -2.9511    2.6968 Cl        1 <0>        -0.0558
      9 N1          0.0653   -4.1556   -0.2724 N.am      1 <0>        -0.6452
     10 C8          0.0638   -4.4226   -1.5925 C.2       1 <0>         0.5534
     11 O1          0.0820   -5.5199   -2.1090 O.2       1 <0>        -0.4785
     12 C9          0.0338   -3.0963   -2.3026 C.3       1 <0>         0.1143
     13 C10        -1.2062   -2.9700   -3.1952 C.3       1 <0>        -0.1312
     14 H1         -1.6677   -1.9845   -3.1330 H         1 <0>         0.1524
     15 C11        -0.6985   -3.3074   -4.6239 C.3       1 <0>        -0.1402
     16 H2         -0.8966   -2.5098   -5.3398 H         1 <0>         0.1492
     17 C12         0.8057   -3.5926   -4.4610 C.3       1 <0>         0.0628
     18 H3          1.0167   -4.6616   -4.4317 H         1 <0>         0.1176
     19 N2          1.1999   -2.9311   -3.1868 N.3       1 <0>        -0.4398
     20 C13         1.3541   -1.5029   -3.5528 C.3       1 <0>         0.0164
     21 C14         1.9709   -1.5116   -4.9659 C.3       1 <0>        -0.1260
     22 C15         1.5836   -2.8832   -5.5841 C.3       1 <0>        -0.1180
     23 C16        -1.4316   -4.5857   -4.9626 C.2       1 <0>         0.5469
     24 O2         -1.3246   -5.2004   -6.0021 O.2       1 <0>        -0.4547
     25 N3         -2.2171   -4.9324   -3.9365 N.am      1 <0>        -0.5195
     26 C17        -2.1762   -4.0869   -2.8815 C.2       1 <0>         0.5414
     27 O3         -2.8058   -4.1991   -1.8516 O.2       1 <0>        -0.4467
     28 C18        -3.0256   -6.0795   -3.9533 C.ar      1 <0>         0.1262
     29 C19        -2.5295   -7.2868   -3.4842 C.ar      1 <0>        -0.0519
     30 C20        -3.3273   -8.4150   -3.5017 C.ar      1 <0>        -0.0820
     31 C21        -4.6206   -8.3440   -3.9861 C.ar      1 <0>         0.0056
     32 C22        -5.1219   -7.1444   -4.4552 C.ar      1 <0>        -0.1454
     33 C23        -4.3300   -6.0072   -4.4356 C.ar      1 <0>         0.1539
     34 O4         -4.8235   -4.8253   -4.8914 O.3       1 <0>        -0.3009
     35 C24        -6.1695   -4.8261   -5.3713 C.3       1 <0>         0.0177
     36 N4         -5.4701   -9.5561   -4.0027 N.pl3     1 <0>         0.0299
     37 O5         -5.0331  -10.6063   -3.5932 O.2       1 <0>        -0.1413
     38 O6         -6.6010   -9.4958   -4.4258 O.3       1 <0>        -0.1504
     39 H4          1.0042    1.8801    0.0026 H         1 <0>         0.0777
     40 H5         -0.5455    1.8639   -0.8728 H         1 <0>         0.0724
     41 H6         -0.5286    1.8543    0.9071 H         1 <0>         0.0731
     42 H7         -0.0068   -0.1470   -2.1323 H         1 <0>         0.1417
     43 H8          0.0225   -0.1670    2.1319 H         1 <0>         0.1468
     44 H9          0.0806   -4.8371    0.4177 H         1 <0>         0.4223
     45 H10         0.3824   -1.0093   -3.5674 H         1 <0>         0.0607
     46 H11         2.0224   -1.0030   -2.8517 H         1 <0>         0.0978
     47 H12         1.5486   -0.7071   -5.5679 H         1 <0>         0.0786
     48 H13         3.0546   -1.4117   -4.9062 H         1 <0>         0.0813
     49 H14         2.4852   -3.4440   -5.8305 H         1 <0>         0.0841
     50 H15         0.9542   -2.7730   -6.4672 H         1 <0>         0.0869
     51 H16        -1.5196   -7.3452   -3.1057 H         1 <0>         0.1658
     52 H17        -2.9396   -9.3545   -3.1366 H         1 <0>         0.1671
     53 H18        -6.1324   -7.0922   -4.8328 H         1 <0>         0.1682
     54 H19        -6.2572   -5.5215   -6.2061 H         1 <0>         0.0663
     55 H20        -6.8408   -5.1341   -4.5697 H         1 <0>         0.0657
     56 H21        -6.4372   -3.8232   -5.7042 H         1 <0>         0.1132
@<TRIPOS>BOND
     1    1    2 1
     2    1   39 1
     3    1   40 1
     4    1   41 1
     5    2    7 ar
     6    2    3 ar
     7    3    4 ar
     8    3   42 1
     9    4   12 1
    10    4    5 ar
    11    5    6 ar
    12    5    9 1
    13    6    7 ar
    14    6    8 1
    15    7   43 1
    16    9   10 am
    17    9   44 1
    18   10   11 2
    19   10   12 1
    20   12   19 1
    21   12   13 1
    22   13   14 1
    23   13   26 1
    24   13   15 1
    25   15   16 1
    26   15   17 1
    27   15   23 1
    28   17   18 1
    29   17   22 1
    30   17   19 1
    31   19   20 1
    32   20   21 1
    33   20   45 1
    34   20   46 1
    35   21   22 1
    36   21   47 1
    37   21   48 1
    38   22   49 1
    39   22   50 1
    40   23   24 2
    41   23   25 am
    42   25   26 am
    43   25   28 1
    44   26   27 2
    45   28   33 ar
    46   28   29 ar
    47   29   30 ar
    48   29   51 1
    49   30   31 ar
    50   30   52 1
    51   31   32 ar
    52   31   36 1
    53   32   33 ar
    54   32   53 1
    55   33   34 1
    56   34   35 1
    57   35   54 1
    58   35   55 1
    59   35   56 1
    60   36   37 2
    61   36   38 1
