@<TRIPOS>MOLECULE
ZINC33617384
   55    58     0     0     0
SMALL
USER_CHARGES

@<TRIPOS>ATOM
      1 C1          0.0327    1.5299   -0.1826 C.3       1 <0>        -0.2019
      2 C2          0.0562    0.0231   -0.1727 C.2       1 <0>         0.3942
      3 O1          0.0893   -0.5760    0.8813 O.2       1 <0>        -0.4529
      4 C3          0.0390   -0.7201   -1.4398 C.ar      1 <0>        -0.1790
      5 C4          0.0066   -0.0306   -2.6581 C.ar      1 <0>        -0.0483
      6 C5         -0.0095   -0.7311   -3.8424 C.ar      1 <0>        -0.1542
      7 C6          0.0059   -2.1224   -3.8305 C.ar      1 <0>         0.1527
      8 C7          0.0381   -2.8119   -2.6225 C.ar      1 <0>        -0.1506
      9 C8          0.0607   -2.1201   -1.4332 C.ar      1 <0>        -0.0337
     10 N1         -0.0114   -2.8291   -5.0354 N.am      1 <0>        -0.5370
     11 C9         -0.0377   -2.2274   -6.2691 C.2       1 <0>         0.5922
     12 O2          0.1675   -1.0615   -6.5296 O.2       1 <0>        -0.4331
     13 C10        -0.3644   -3.2933   -7.1876 C.3       1 <0>        -0.2060
     14 H1         -1.4154   -3.4752   -6.9630 H         1 <0>         0.1336
     15 C11        -0.2946   -3.6075   -8.6216 C.3       1 <0>         0.1386
     16 H2         -1.1204   -3.1371   -9.1555 H         1 <0>         0.1696
     17 N2         -0.4155   -5.1016   -8.6800 N.4       1 <0>        -0.4990
     18 C12        -0.4261   -5.6089   -7.2693 C.3       1 <0>         0.0050
     19 C13         0.3825   -4.5215   -6.5299 C.3       1 <0>        -0.1045
     20 H3          1.4576   -4.5582   -6.7058 H         1 <0>         0.1718
     21 C14         0.0019   -4.1927   -5.1125 C.2       1 <0>         0.5445
     22 O3         -0.2447   -4.9777   -4.2223 O.2       1 <0>        -0.3910
     23 C15        -1.8581   -5.7086   -6.7398 C.3       1 <0>         0.0746
     24 O4         -2.6014   -6.6247   -7.5462 O.3       1 <0>        -0.5580
     25 C16         0.2737   -6.9402   -7.1752 C.2       1 <0>         0.5133
     26 O5          0.7273   -7.4628   -8.1790 O.co2     1 <0>        -0.6552
     27 O6          0.3862   -7.4948   -6.0952 O.co2     1 <0>        -0.6076
     28 C17         1.0251   -3.1600   -9.1954 C.ar      1 <0>        -0.1272
     29 C18         2.0960   -4.0342   -9.2300 C.ar      1 <0>        -0.1521
     30 C19         3.3077   -3.6271   -9.7555 C.ar      1 <0>        -0.0642
     31 C20         3.4547   -2.3435  -10.2486 C.ar      1 <0>        -0.1758
     32 C21         2.3860   -1.4628  -10.2169 C.ar      1 <0>         0.1164
     33 C22         1.1638   -1.8749   -9.6933 C.ar      1 <0>         0.1164
     34 O7          0.1100   -1.0157   -9.6652 O.3       1 <0>        -0.4827
     35 O8          2.5288   -0.2002  -10.7015 O.3       1 <0>        -0.3010
     36 C23         3.8096    0.1512  -11.2289 C.3       1 <0>         0.0216
     37 H4          1.0544    1.9090   -0.2082 H         1 <0>         0.1000
     38 H5         -0.5066    1.8791   -1.0631 H         1 <0>         0.0868
     39 H6         -0.4665    1.8914    0.7164 H         1 <0>         0.0906
     40 H7         -0.0062    1.0493   -2.6682 H         1 <0>         0.1446
     41 H8         -0.0345   -0.2002   -4.7825 H         1 <0>         0.1571
     42 H9          0.0496   -3.8919   -2.6184 H         1 <0>         0.1575
     43 H10         0.0902   -2.6562   -0.4961 H         1 <0>         0.1453
     44 H11        -1.2748   -5.3579   -9.1426 H         1 <0>         0.4365
     45 H12        -1.8405   -6.0633   -5.7092 H         1 <0>         0.1062
     46 H13        -2.3288   -4.7263   -6.7779 H         1 <0>         0.0544
     47 H14        -3.5204   -6.7378   -7.2676 H         1 <0>         0.4006
     48 H15         1.9854   -5.0373   -8.8451 H         1 <0>         0.1384
     49 H16         4.1418   -4.3128   -9.7807 H         1 <0>         0.1438
     50 H17         4.4028   -2.0276  -10.6580 H         1 <0>         0.1434
     51 H18         0.0567   -0.4850   -8.8586 H         1 <0>         0.3980
     52 H19         4.5641    0.0498  -10.4488 H         1 <0>         0.0599
     53 H20         4.0545   -0.5107  -12.0595 H         1 <0>         0.0606
     54 H21         3.7871    1.1827  -11.5807 H         1 <0>         0.1075
     55 H22         0.3719   -5.4897   -9.1776 H         1 <0>         0.4393
@<TRIPOS>BOND
     1    1    2 1
     2    1   37 1
     3    1   38 1
     4    1   39 1
     5    2    3 2
     6    2    4 1
     7    4    9 ar
     8    4    5 ar
     9    5    6 ar
    10    5   40 1
    11    6    7 ar
    12    6   41 1
    13    7    8 ar
    14    7   10 1
    15    8    9 ar
    16    8   42 1
    17    9   43 1
    18   10   21 am
    19   10   11 am
    20   11   12 2
    21   11   13 1
    22   13   14 1
    23   13   19 1
    24   13   15 1
    25   15   16 1
    26   15   17 1
    27   15   28 1
    28   17   18 1
    29   17   44 1
    30   17   55 1
    31   18   19 1
    32   18   23 1
    33   18   25 1
    34   19   20 1
    35   19   21 1
    36   21   22 2
    37   23   24 1
    38   23   45 1
    39   23   46 1
    40   24   47 1
    41   25   26 2
    42   25   27 1
    43   28   33 ar
    44   28   29 ar
    45   29   30 ar
    46   29   48 1
    47   30   31 ar
    48   30   49 1
    49   31   32 ar
    50   31   50 1
    51   32   33 ar
    52   32   35 1
    53   33   34 1
    54   34   51 1
    55   35   36 1
    56   36   52 1
    57   36   53 1
    58   36   54 1
