@<TRIPOS>MOLECULE
ZINC65146005
   50    52     0     0     0
SMALL
USER_CHARGES

@<TRIPOS>ATOM
      1 C1          1.1785    2.1028    0.5099 C.3       1 <0>        -0.1268
      2 C2          1.1471    0.6301    0.0962 C.3       1 <0>        -0.1159
      3 C3         -0.0950   -0.1820    0.4687 C.3       1 <0>        -0.1447
      4 C4          1.2235   -0.4179    1.2082 C.3       1 <0>        -0.1968
      5 C5          1.9689   -1.6937    0.9120 C.2       1 <0>         0.5458
      6 O1          2.4800   -1.8589   -0.1753 O.2       1 <0>        -0.5168
      7 N1          2.0674   -2.6512    1.8554 N.am      1 <0>        -0.6563
      8 C6          2.6553   -3.8765    1.5461 C.ar      1 <0>         0.2171
      9 C7          2.6652   -4.3337    0.2352 C.ar      1 <0>        -0.1138
     10 C8          3.2476   -5.5471   -0.0702 C.ar      1 <0>        -0.0928
     11 C9          3.8266   -6.3184    0.9273 C.ar      1 <0>         0.0763
     12 C10         3.8255   -5.8791    2.2355 C.ar      1 <0>        -0.0987
     13 C11         3.2443   -4.6500    2.5567 C.ar      1 <0>        -0.1500
     14 C12         3.2445   -4.1714    3.9522 C.2       1 <0>         0.5775
     15 O2          2.6554   -3.1486    4.2442 O.2       1 <0>        -0.5338
     16 N2          3.8976   -4.8680    4.9033 N.am      1 <0>        -0.5196
     17 N3          3.8977   -4.4135    6.2286 N.am      1 <0>        -0.5286
     18 C13         4.5509   -5.1101    7.1798 C.2       1 <0>         0.7145
     19 O3          4.5510   -4.7157    8.3299 O.2       1 <0>        -0.5653
     20 N4          5.2039   -6.2438    6.8561 N.am      1 <0>        -0.7371
     21 C14         5.9138   -7.0009    7.8900 C.3       1 <0>         0.1263
     22 C15         6.5643   -8.2352    7.2621 C.3       1 <0>         0.0660
     23 C16         7.2172   -9.0998    8.3619 C.3       1 <0>        -0.1478
     24 C17         8.5283   -9.5711    7.6758 C.3       1 <0>        -0.1565
     25 C18         8.8675   -8.3331    6.8079 C.3       1 <0>         0.0490
     26 O4          7.5990   -7.8319    6.3573 O.3       1 <0>        -0.3774
     27 F1          4.3933   -7.5048    0.6166 F         1 <0>        -0.1322
     28 H1          2.1082    2.3118    1.0391 H         1 <0>         0.0636
     29 H2          1.1171    2.7312   -0.3786 H         1 <0>         0.0678
     30 H3          0.3326    2.3146    1.1639 H         1 <0>         0.0600
     31 H4          1.6362    0.3970   -0.8496 H         1 <0>         0.1196
     32 H5         -0.8897    0.3329    1.0085 H         1 <0>         0.1091
     33 H6         -0.4232   -0.9496   -0.2321 H         1 <0>         0.1012
     34 H7          1.2962   -0.0582    2.2346 H         1 <0>         0.1297
     35 H8          1.7292   -2.4875    2.7497 H         1 <0>         0.4299
     36 H9          2.2163   -3.7391   -0.5466 H         1 <0>         0.1654
     37 H10         3.2524   -5.8984   -1.0914 H         1 <0>         0.1491
     38 H11         4.2768   -6.4825    3.0091 H         1 <0>         0.1406
     39 H12         4.3676   -5.6839    4.6704 H         1 <0>         0.4218
     40 H13         3.4278   -3.5976    6.4616 H         1 <0>         0.4455
     41 H14         5.2038   -6.5584    5.9385 H         1 <0>         0.3936
     42 H15         6.6838   -6.3719    8.3367 H         1 <0>         0.0766
     43 H16         5.2085   -7.3139    8.6599 H         1 <0>         0.0830
     44 H17         5.8133   -8.8180    6.7288 H         1 <0>         0.0895
     45 H18         7.4357   -8.5019    9.2467 H         1 <0>         0.0842
     46 H19         6.5838   -9.9503    8.6138 H         1 <0>         0.0888
     47 H20         9.3100   -9.7615    8.4111 H         1 <0>         0.0871
     48 H21         8.3530  -10.4498    7.0551 H         1 <0>         0.0809
     49 H22         9.3807   -7.5805    7.4066 H         1 <0>         0.0628
     50 H23         9.4830   -8.6248    5.9569 H         1 <0>         0.0885
@<TRIPOS>BOND
     1    1    2 1
     2    1   28 1
     3    1   29 1
     4    1   30 1
     5    2    4 1
     6    2    3 1
     7    2   31 1
     8    3    4 1
     9    3   32 1
    10    3   33 1
    11    4    5 1
    12    4   34 1
    13    5    6 2
    14    5    7 am
    15    7    8 1
    16    7   35 1
    17    8   13 ar
    18    8    9 ar
    19    9   10 ar
    20    9   36 1
    21   10   11 ar
    22   10   37 1
    23   11   12 ar
    24   11   27 1
    25   12   13 ar
    26   12   38 1
    27   13   14 1
    28   14   15 2
    29   14   16 am
    30   16   17 1
    31   16   39 1
    32   17   18 am
    33   17   40 1
    34   18   19 2
    35   18   20 am
    36   20   21 1
    37   20   41 1
    38   21   22 1
    39   21   42 1
    40   21   43 1
    41   22   26 1
    42   22   23 1
    43   22   44 1
    44   23   24 1
    45   23   45 1
    46   23   46 1
    47   24   25 1
    48   24   47 1
    49   24   48 1
    50   25   26 1
    51   25   49 1
    52   25   50 1
