@<TRIPOS>MOLECULE
ZINC39934980
   49    52     0     0     0
SMALL
USER_CHARGES

@<TRIPOS>ATOM
      1 C1         -0.0173    1.4248    0.0099 C.3       1 <0>        -0.0088
      2 O1          0.0021   -0.0041    0.0020 O.3       1 <0>        -0.2419
      3 C2         -1.1978   -0.6361    0.0101 C.ar      1 <0>         0.2891
      4 C3         -2.4180    0.1604    0.0200 C.ar      1 <0>        -0.0355
      5 C4         -3.6382   -0.4080    0.0288 C.ar      1 <0>        -0.1017
      6 C5         -3.7616   -1.8734    0.0279 C.ar      1 <0>         0.3277
      7 N1         -4.7952   -2.6652    0.0356 N.pl3     1 <0>        -0.4522
      8 C6         -4.2953   -4.0452    0.0305 C.3       1 <0>         0.3434
      9 H1         -4.6309   -4.5679    0.9262 H         1 <0>         0.2379
     10 N2         -2.8302   -3.9553    0.0188 N.pl3     1 <0>        -0.5019
     11 C7         -2.5166   -2.6881    0.0172 C.ar      1 <0>         0.3239
     12 C8         -1.2287   -1.9912    0.0031 C.ar      1 <0>        -0.2330
     13 C9         -4.7802   -4.7663   -1.2007 C.2       1 <0>        -0.2858
     14 C10        -5.5380   -5.9197   -1.0748 C.2       1 <0>         0.1763
     15 C11        -5.9872   -6.5878   -2.2154 C.2       1 <0>        -0.1497
     16 C12        -6.7988   -7.8104   -2.2307 C.2       1 <0>        -0.0264
     17 C13        -7.0117   -8.1212   -3.5345 C.2       1 <0>        -0.1973
     18 C14        -6.3337   -7.0936   -4.3305 C.2       1 <0>         0.1954
     19 O2         -5.7542   -6.2163   -3.4902 O.3       1 <0>        -0.1176
     20 C15        -6.2991   -7.0318   -5.7369 C.ar      1 <0>        -0.1342
     21 C16        -5.9418   -8.1699   -6.4921 C.ar      1 <0>         0.0415
     22 C17        -5.9115   -8.1007   -7.8510 C.ar      1 <0>        -0.0373
     23 C18        -6.2305   -6.9146   -8.5090 C.ar      1 <0>         0.0303
     24 C19        -6.5834   -5.7861   -7.7961 C.ar      1 <0>        -0.2080
     25 C20        -6.6289   -5.8259   -6.4103 C.ar      1 <0>         0.2334
     26 O3         -6.9795   -4.7249   -5.7068 O.3       1 <0>        -0.2942
     27 C21        -7.2972   -3.5502   -6.4560 C.3       1 <0>         0.0155
     28 N3         -5.5357   -9.2970   -8.6376 N.pl3     1 <0>        -0.0259
     29 O4         -5.2327  -10.4212   -8.0222 O.2       1 <0>        -0.1543
     30 O5         -5.5044   -9.2371   -9.9529 O.3       1 <0>        -0.1425
     31 C22        -4.4580   -4.2597   -2.5008 C.1       1 <0>         0.2138
     32 N4         -4.2023   -3.8578   -3.5321 N.1       1 <0>        -0.3656
     33 H2          1.0053    1.8021    0.0021 H         1 <0>         0.1439
     34 H3         -0.5445    1.7859   -0.8732 H         1 <0>         0.0907
     35 H4         -0.5275    1.7763    0.9067 H         1 <0>         0.0919
     36 H5         -2.3411    1.2376    0.0208 H         1 <0>         0.2066
     37 H6         -4.5237    0.2102    0.0368 H         1 <0>         0.2120
     38 H7         -0.3074   -2.5546   -0.0087 H         1 <0>         0.2056
     39 H8         -5.7810   -6.3018   -0.0944 H         1 <0>         0.1896
     40 H9         -7.1568   -8.3572   -1.3709 H         1 <0>         0.1897
     41 H10        -7.5720   -8.9635   -3.9127 H         1 <0>         0.1874
     42 H11        -5.6924   -9.0941   -5.9920 H         1 <0>         0.1769
     43 H12        -6.2010   -6.8774   -9.5879 H         1 <0>         0.1755
     44 H13        -6.8281   -4.8728   -8.3180 H         1 <0>         0.1698
     45 H14        -8.1399   -3.7569   -7.1157 H         1 <0>         0.0771
     46 H15        -7.5605   -2.7433   -5.7721 H         1 <0>         0.1133
     47 H16        -6.4335   -3.2545   -7.0516 H         1 <0>         0.0729
     48 H17        -5.7260   -2.3926    0.0436 H         1 <0>         0.4917
     49 H18        -2.2092   -4.7005    0.0135 H         1 <0>         0.4910
@<TRIPOS>BOND
     1    1    2 1
     2    1   33 1
     3    1   34 1
     4    1   35 1
     5    2    3 1
     6    3   12 ar
     7    3    4 ar
     8    4    5 ar
     9    4   36 1
    10    5    6 ar
    11    5   37 1
    12    6   11 ar
    13    6    7 2
    14    7    8 1
    15    7   48 1
    16    8    9 1
    17    8   10 1
    18    8   13 1
    19   10   11 2
    20   10   49 1
    21   11   12 ar
    22   12   38 1
    23   13   14 2
    24   13   31 1
    25   14   15 1
    26   14   39 1
    27   15   19 1
    28   15   16 2
    29   16   17 1
    30   16   40 1
    31   17   18 2
    32   17   41 1
    33   18   19 1
    34   18   20 1
    35   20   25 ar
    36   20   21 ar
    37   21   22 ar
    38   21   42 1
    39   22   23 ar
    40   22   28 1
    41   23   24 ar
    42   23   43 1
    43   24   25 ar
    44   24   44 1
    45   25   26 1
    46   26   27 1
    47   27   45 1
    48   27   46 1
    49   27   47 1
    50   28   29 2
    51   28   30 1
    52   31   32 3
