@<TRIPOS>MOLECULE
ZINC09822453
   49    52     0     0     0
SMALL
USER_CHARGES
N-[2-(4-benzyl-5-oxo-2,4,8,9-tetrazabicyclo[4.3.0]nona-2,7,10-trien-9-yl)ethyl]-4-chloro-3-nitro-benzamide
@<TRIPOS>ATOM
      1 C1          0.9493    4.9143    4.0459 C.ar      1 <0>        -0.1075
      2 C2          2.1534    4.7702    3.3823 C.ar      1 <0>        -0.1216
      3 C3          2.1731    4.3168    2.0766 C.ar      1 <0>        -0.0899
      4 C4          0.9887    4.0074    1.4345 C.ar      1 <0>        -0.1240
      5 C5         -0.2157    4.1564    2.0963 C.ar      1 <0>        -0.1034
      6 C6         -0.2351    4.6049    3.4037 C.ar      1 <0>        -0.1229
      7 C7          1.0102    3.5135    0.0108 C.3       1 <0>         0.1370
      8 N1          1.1116    2.0520    0.0025 N.am      1 <0>        -0.5383
      9 C8         -0.0156    1.2966    0.0092 C.2       1 <0>         0.4216
     10 N2          0.0021   -0.0041    0.0020 N.2       1 <0>        -0.5359
     11 C9          1.1514   -0.6973   -0.0127 C.2       1 <0>         0.3387
     12 C10         2.3705   -0.0013   -0.0207 C.2       1 <0>        -0.3389
     13 C11         2.3292    1.4609   -0.0129 C.2       1 <0>         0.5760
     14 O1          3.3526    2.1220   -0.0194 O.2       1 <0>        -0.5099
     15 C12         3.3995   -0.9612   -0.0353 C.2       1 <0>         0.1343
     16 N3          2.8548   -2.1465   -0.0361 N.2       1 <0>        -0.2669
     17 N4          1.4600   -2.0201   -0.0224 N.pl3     1 <0>        -0.3534
     18 C13         0.4984   -3.1254   -0.0185 C.3       1 <0>         0.1268
     19 C14         0.1496   -3.5029   -1.4595 C.3       1 <0>         0.1051
     20 N5         -0.8120   -4.6082   -1.4557 N.am      1 <0>        -0.7198
     21 C15        -1.2657   -5.1108   -2.6210 C.2       1 <0>         0.5659
     22 O2         -0.8771   -4.6469   -3.6753 O.2       1 <0>        -0.5122
     23 C16        -2.2357   -6.2257   -2.6171 C.ar      1 <0>        -0.1300
     24 C17        -2.6795   -6.7644   -1.4077 C.ar      1 <0>        -0.0259
     25 C18        -3.5885   -7.8010   -1.4103 C.ar      1 <0>        -0.1146
     26 C19        -4.0528   -8.3158   -2.6098 C.ar      1 <0>         0.0355
     27 C20        -3.6122   -7.7892   -3.8125 C.ar      1 <0>        -0.0467
     28 C21        -2.7074   -6.7483   -3.8225 C.ar      1 <0>         0.0153
     29 N6         -4.1138   -8.3442   -5.0897 N.pl3     1 <0>         0.0236
     30 O3         -3.7274   -7.8816   -6.1482 O.2       1 <0>        -0.1497
     31 O4         -4.9128   -9.2634   -5.0823 O.3       1 <0>        -0.1282
     32 Cl1        -5.1917   -9.6260   -2.6052 Cl        1 <0>         0.0101
     33 H1          0.9339    5.2689    5.0659 H         1 <0>         0.1245
     34 H2          3.0787    5.0123    3.8839 H         1 <0>         0.1254
     35 H3          3.1138    4.2046    1.5581 H         1 <0>         0.1305
     36 H4         -1.1413    3.9189    1.5931 H         1 <0>         0.1245
     37 H5         -1.1758    4.7177    3.9220 H         1 <0>         0.1257
     38 H6          1.8681    3.9402   -0.5089 H         1 <0>         0.1125
     39 H7          0.0924    3.8169   -0.4929 H         1 <0>         0.1087
     40 H8         -0.9718    1.7985    0.0164 H         1 <0>         0.2117
     41 H9          4.4591   -0.7522   -0.0439 H         1 <0>         0.2007
     42 H10         0.9364   -3.9862    0.4868 H         1 <0>         0.1086
     43 H11        -0.4064   -2.8179    0.5058 H         1 <0>         0.1083
     44 H12        -0.2884   -2.6421   -1.9648 H         1 <0>         0.0821
     45 H13         1.0544   -3.8104   -1.9838 H         1 <0>         0.0847
     46 H14        -1.1221   -4.9783   -0.6144 H         1 <0>         0.4027
     47 H15        -2.3146   -6.3671   -0.4721 H         1 <0>         0.1559
     48 H16        -3.9359   -8.2156   -0.4755 H         1 <0>         0.1672
     49 H17        -2.3643   -6.3387   -4.7610 H         1 <0>         0.1764
@<TRIPOS>BOND
     1    1    6 ar
     2    1    2 ar
     3    1   33 1
     4    2    3 ar
     5    2   34 1
     6    3    4 ar
     7    3   35 1
     8    4    5 ar
     9    4    7 1
    10    5    6 ar
    11    5   36 1
    12    6   37 1
    13    7    8 1
    14    7   38 1
    15    7   39 1
    16    8   13 am
    17    8    9 1
    18    9   10 2
    19    9   40 1
    20   10   11 1
    21   11   17 1
    22   11   12 2
    23   12   13 1
    24   12   15 1
    25   13   14 2
    26   15   16 2
    27   15   41 1
    28   16   17 1
    29   17   18 1
    30   18   19 1
    31   18   42 1
    32   18   43 1
    33   19   20 1
    34   19   44 1
    35   19   45 1
    36   20   21 am
    37   20   46 1
    38   21   22 2
    39   21   23 1
    40   23   28 ar
    41   23   24 ar
    42   24   25 ar
    43   24   47 1
    44   25   26 ar
    45   25   48 1
    46   26   27 ar
    47   26   32 1
    48   27   28 ar
    49   27   29 1
    50   28   49 1
    51   29   30 2
    52   29   31 1
