@<TRIPOS>MOLECULE
ZINC48839614
   35    36     0     0     0
SMALL
USER_CHARGES

@<TRIPOS>ATOM
      1 C1          2.2777    1.5706   -1.1659 C.2       1 <0>        -0.0864
      2 C2          1.4201    2.1336   -0.2555 C.2       1 <0>        -0.6770
      3 C3          0.6094    1.3248    0.4763 C.2       1 <0>        -0.2490
      4 S1          0.9883   -0.2247   -0.0509 S.3       1 <0>         0.3440
      5 C4          2.2356    0.1841   -1.2572 C.2       1 <0>        -0.1468
      6 C5          2.9876   -0.6789   -2.0916 C.2       1 <0>         0.5382
      7 O1          3.8114   -0.2138   -2.8701 O.co2     1 <0>        -0.6465
      8 O2          2.8142   -1.8904   -2.0347 O.co2     1 <0>        -0.6633
      9 Br1        -0.6556    1.8283    1.7886 Br        1 <0>         0.0369
     10 S2          1.3706    3.8813   -0.0374 S.o2      1 <0>         2.6921
     11 O3          2.3267    4.4298   -0.9342 O.2       1 <0>        -0.9322
     12 O4         -0.0001    4.2552   -0.0630 O.2       1 <0>        -0.9288
     13 N1          1.9195    4.1996    1.4923 N.pl3     1 <0>        -1.1301
     14 C6          3.3094    3.9035    1.8481 C.3       1 <0>         0.1341
     15 H1          3.6877    3.1087    1.2053 H         1 <0>         0.1176
     16 C7          4.1624    5.1599    1.6614 C.3       1 <0>        -0.1359
     17 C8          3.6314    6.2756    2.5638 C.3       1 <0>        -0.1300
     18 C9          3.6991    5.8256    4.0246 C.3       1 <0>        -0.1161
     19 C10         2.8462    4.5692    4.2113 C.3       1 <0>        -0.1427
     20 C11         3.3772    3.4536    3.3089 C.3       1 <0>         0.0201
     21 H2          4.4113    3.2334    3.5737 H         1 <0>         0.1625
     22 N2          2.5582    2.2473    3.4882 N.4       1 <0>        -0.6418
     23 H3          2.9400    2.1667   -1.7762 H         1 <0>         0.1708
     24 H4          1.3207    4.5820    2.1527 H         1 <0>         0.4185
     25 H5          5.1965    4.9397    1.9262 H         1 <0>         0.0893
     26 H6          4.1141    5.4805    0.6207 H         1 <0>         0.1041
     27 H7          4.2391    7.1706    2.4308 H         1 <0>         0.0827
     28 H8          2.5972    6.4958    2.2990 H         1 <0>         0.0720
     29 H9          4.7333    5.6054    4.2893 H         1 <0>         0.0783
     30 H10         3.3209    6.6204    4.6675 H         1 <0>         0.0858
     31 H11         2.8945    4.2487    5.2520 H         1 <0>         0.0943
     32 H12         1.8120    4.7895    3.9466 H         1 <0>         0.0862
     33 H13         2.9084    1.5116    2.8931 H         1 <0>         0.4393
     34 H14         2.6029    1.9506    4.4516 H         1 <0>         0.4380
     35 H15         1.6009    2.4512    3.2431 H         1 <0>         0.4219
@<TRIPOS>BOND
     1    1    5 2
     2    1    2 1
     3    1   23 1
     4    2    3 2
     5    2   10 1
     6    3    4 1
     7    3    9 1
     8    4    5 1
     9    5    6 1
    10    6    7 2
    11    6    8 1
    12   10   11 2
    13   10   12 2
    14   10   13 1
    15   13   14 1
    16   13   24 1
    17   14   15 1
    18   14   20 1
    19   14   16 1
    20   16   17 1
    21   16   25 1
    22   16   26 1
    23   17   18 1
    24   17   27 1
    25   17   28 1
    26   18   19 1
    27   18   29 1
    28   18   30 1
    29   19   20 1
    30   19   31 1
    31   19   32 1
    32   20   21 1
    33   20   22 1
    34   22   33 1
    35   22   34 1
    36   22   35 1
