@<TRIPOS>MOLECULE
ZINC36286269
   63    68     0     0     0
SMALL
USER_CHARGES

@<TRIPOS>ATOM
      1 C1         -0.7070    1.1317    0.3700 C.3       1 <0>        -0.1370
      2 C2         -0.2113   -0.2680    0.0012 C.3       1 <0>        -0.0843
      3 C3          0.9183   -0.1822   -1.0513 C.3       1 <0>        -0.0975
      4 H1          0.5304   -0.3566   -2.0549 H         1 <0>         0.1106
      5 C4          1.8481   -1.3341   -0.6099 C.3       1 <0>         0.1021
      6 N1          1.5956   -1.5135    0.8246 N.am      1 <0>        -0.6050
      7 C5          0.4426   -0.9295    1.1942 C.2       1 <0>         0.5280
      8 O1         -0.0075   -0.9320    2.3204 O.2       1 <0>        -0.5196
      9 C6          2.4857   -2.2361    1.7367 C.3       1 <0>         0.1739
     10 C7          1.6539   -2.9343    2.8144 C.3       1 <0>        -0.1036
     11 H2          1.0863   -2.1908    3.3739 H         1 <0>         0.1008
     12 C8          2.5835   -3.6890    3.7669 C.3       1 <0>        -0.1030
     13 C9          3.3802   -4.7327    2.9816 C.3       1 <0>        -0.0875
     14 C10         4.2120   -4.0345    1.9038 C.3       1 <0>        -0.1017
     15 C11         3.2824   -3.2798    0.9514 C.3       1 <0>        -0.0951
     16 H3          3.8750   -2.7823    0.1836 H         1 <0>         0.0700
     17 C12         2.3178   -4.2671    0.2913 C.3       1 <0>        -0.0880
     18 C13         1.4861   -4.9653    1.3690 C.3       1 <0>         0.0653
     19 C14         0.6893   -3.9216    2.1543 C.3       1 <0>        -0.0797
     20 C15         2.4156   -5.7200    2.3215 C.3       1 <0>        -0.0938
     21 C16         0.5360   -5.9378    0.7189 C.2       1 <0>         0.0667
     22 N2          0.4181   -6.1796   -0.5786 N.2       1 <0>        -0.3889
     23 N3         -0.5002   -7.0724   -0.7269 N.2       1 <0>        -0.2042
     24 N4         -0.9603   -7.3970    0.4311 N.2       1 <0>        -0.2031
     25 N5         -0.3384   -6.7199    1.3350 N.2       1 <0>        -0.3867
     26 C17         1.6389    1.1652   -0.9723 C.3       1 <0>         0.0762
     27 O2          2.5953    1.2565   -2.0302 O.3       1 <0>        -0.2932
     28 C18         3.3254    2.3977   -2.1037 C.ar      1 <0>         0.3590
     29 C19         4.2672    2.5480   -3.1138 C.ar      1 <0>        -0.1905
     30 C20         5.0050    3.7169   -3.1778 C.ar      1 <0>         0.0087
     31 C21         4.7735    4.6991   -2.2244 C.ar      1 <0>        -0.2862
     32 C22         3.8215    4.4820   -1.2485 C.ar      1 <0>         0.2008
     33 N6          3.1300    3.3585   -1.2162 N.ar      1 <0>        -0.5362
     34 C23         5.5533    5.9883   -2.2541 C.3       1 <0>         0.5213
     35 F1          4.8752    6.9254   -3.0410 F         1 <0>        -0.1757
     36 F2          5.6874    6.4824   -0.9522 F         1 <0>        -0.1755
     37 F3          6.8213    5.7539   -2.7968 F         1 <0>        -0.1764
     38 C24        -1.3676   -1.1244   -0.5188 C.3       1 <0>        -0.1328
     39 H4          0.1316    1.7337    0.7198 H         1 <0>         0.0611
     40 H5         -1.1515    1.6025   -0.5068 H         1 <0>         0.0661
     41 H6         -1.4544    1.0561    1.1598 H         1 <0>         0.0707
     42 H7          1.6023   -2.2465   -1.1532 H         1 <0>         0.0875
     43 H8          2.8904   -1.0632   -0.7784 H         1 <0>         0.0813
     44 H9          3.1729   -1.5327    2.2069 H         1 <0>         0.0651
     45 H10         3.2707   -2.9856    4.2372 H         1 <0>         0.0572
     46 H11         1.9909   -4.1864    4.5347 H         1 <0>         0.0669
     47 H12         4.0425   -5.2704    3.6602 H         1 <0>         0.0680
     48 H13         4.8992   -3.3311    2.3741 H         1 <0>         0.0589
     49 H14         4.7796   -4.7780    1.3444 H         1 <0>         0.0664
     50 H15         1.6556   -3.7294   -0.3873 H         1 <0>         0.0682
     51 H16         2.8854   -5.0106   -0.2682 H         1 <0>         0.0641
     52 H17         0.0967   -4.4191    2.9221 H         1 <0>         0.0634
     53 H18         0.0271   -3.3840    1.4758 H         1 <0>         0.0522
     54 H19         2.9833   -6.4636    1.7620 H         1 <0>         0.0550
     55 H20         1.8231   -6.2175    3.0893 H         1 <0>         0.0663
     56 H21         0.9124    1.9720   -1.0687 H         1 <0>         0.0829
     57 H22         2.1494    1.2485   -0.0129 H         1 <0>         0.0740
     58 H23         4.4218    1.7629   -3.8392 H         1 <0>         0.1567
     59 H24         5.7443    3.8617   -3.9517 H         1 <0>         0.1545
     60 H25         3.6376    5.2429   -0.5044 H         1 <0>         0.1713
     61 H26        -1.7894   -0.6621   -1.4113 H         1 <0>         0.0688
     62 H27        -1.0000   -2.1206   -0.7648 H         1 <0>         0.0667
     63 H28        -2.1374   -1.2006    0.2492 H         1 <0>         0.0683
@<TRIPOS>BOND
     1    1    2 1
     2    1   39 1
     3    1   40 1
     4    1   41 1
     5    2    7 1
     6    2    3 1
     7    2   38 1
     8    3    4 1
     9    3    5 1
    10    3   26 1
    11    5    6 1
    12    5   42 1
    13    5   43 1
    14    6    7 am
    15    6    9 1
    16    7    8 2
    17    9   15 1
    18    9   10 1
    19    9   44 1
    20   10   11 1
    21   10   19 1
    22   10   12 1
    23   12   13 1
    24   12   45 1
    25   12   46 1
    26   13   20 1
    27   13   14 1
    28   13   47 1
    29   14   15 1
    30   14   48 1
    31   14   49 1
    32   15   16 1
    33   15   17 1
    34   17   18 1
    35   17   50 1
    36   17   51 1
    37   18   19 1
    38   18   20 1
    39   18   21 1
    40   19   52 1
    41   19   53 1
    42   20   54 1
    43   20   55 1
    44   21   25 2
    45   21   22 1
    46   22   23 1
    47   23   24 2
    48   24   25 1
    49   26   27 1
    50   26   56 1
    51   26   57 1
    52   27   28 1
    53   28   33 ar
    54   28   29 ar
    55   29   30 ar
    56   29   58 1
    57   30   31 ar
    58   30   59 1
    59   31   32 ar
    60   31   34 1
    61   32   33 ar
    62   32   60 1
    63   34   35 1
    64   34   36 1
    65   34   37 1
    66   38   61 1
    67   38   62 1
    68   38   63 1
