@<TRIPOS>MOLECULE
ZINC63279889
   63    66     0     0     0
SMALL
USER_CHARGES

@<TRIPOS>ATOM
      1 C1         -0.0187    1.5258    0.0104 C.3       1 <0>        -0.1471
      2 C2          0.0021   -0.0041    0.0020 C.3       1 <0>        -0.1279
      3 C3          0.7182   -0.4975   -1.2568 C.3       1 <0>         0.1295
      4 H1          0.2444   -0.0644   -2.1377 H         1 <0>         0.1186
      5 C4          0.6316   -2.0003   -1.3275 C.2       1 <0>         0.5188
      6 O1          1.6452   -2.6663   -1.3373 O.2       1 <0>        -0.5229
      7 N1         -0.5721   -2.6043   -1.3798 N.am      1 <0>        -0.7308
      8 C5         -0.6562   -4.0652   -1.4486 C.3       1 <0>         0.1258
      9 C6         -2.1253   -4.4897   -1.4981 C.3       1 <0>        -0.1058
     10 C7         -2.2119   -5.9925   -1.5689 C.2       1 <0>         0.0695
     11 C8         -2.3801   -6.8470   -0.5339 C.ar      1 <0>        -0.1662
     12 C9         -2.5260   -6.6409    0.9120 C.ar      1 <0>        -0.0135
     13 C10        -2.6820   -7.7175    1.7156 C.ar      1 <0>        -0.1495
     14 C11        -2.7073   -9.0220    1.2034 C.ar      1 <0>         0.0548
     15 C12        -2.5796   -9.2911   -0.1131 C.ar      1 <0>        -0.2096
     16 C13        -2.4107   -8.2343   -1.0497 C.ar      1 <0>         0.3279
     17 N2         -2.2670   -8.2374   -2.3528 N.pl3     1 <0>        -0.5843
     18 C14        -2.1349   -6.8502   -2.8121 C.3       1 <0>         0.0602
     19 N3          2.1249   -0.0911   -1.2094 N.am      1 <0>        -0.7154
     20 C15         2.4874    1.1337   -1.6396 C.2       1 <0>         0.5057
     21 O2          1.6490    1.8993   -2.0661 O.2       1 <0>        -0.5114
     22 C16         3.9344    1.5517   -1.5909 C.3       1 <0>         0.1395
     23 H2          4.3951    1.2100   -0.6640 H         1 <0>         0.0997
     24 C17         4.6935    0.9881   -2.8031 C.3       1 <0>        -0.0674
     25 C18         5.1945    2.2098   -3.5403 C.ar      1 <0>        -0.1345
     26 C19         5.9375    2.3259   -4.6997 C.ar      1 <0>        -0.0916
     27 C20         6.2788    3.5791   -5.1845 C.ar      1 <0>         0.0812
     28 C21         5.8714    4.7153   -4.5009 C.ar      1 <0>        -0.1573
     29 C22         5.1304    4.5995   -3.3445 C.ar      1 <0>        -0.1321
     30 C23         4.7838    3.3398   -2.8517 C.ar      1 <0>         0.1670
     31 N4          4.0470    3.0080   -1.7076 N.pl3     1 <0>        -0.6127
     32 C24         3.4725    3.9729   -0.7667 C.3       1 <0>         0.1169
     33 O3          7.0104    3.6940   -6.3252 O.3       1 <0>        -0.3195
     34 C25         7.3242    5.0173   -6.7641 C.3       1 <0>         0.0285
     35 H3          1.0039    1.9031    0.0027 H         1 <0>         0.0588
     36 H4         -0.5459    1.8868   -0.8726 H         1 <0>         0.0646
     37 H5         -0.5289    1.8773    0.9072 H         1 <0>         0.0555
     38 H6          0.5293   -0.3651    0.8851 H         1 <0>         0.0721
     39 H7         -1.0205   -0.3814    0.0098 H         1 <0>         0.0741
     40 H8         -1.3827   -2.0716   -1.3720 H         1 <0>         0.4091
     41 H9         -0.1460   -4.4168   -2.3454 H         1 <0>         0.0798
     42 H10        -0.1824   -4.4983   -0.5677 H         1 <0>         0.0811
     43 H11        -2.6355   -4.1382   -0.6013 H         1 <0>         0.1171
     44 H12        -2.5992   -4.0566   -2.3791 H         1 <0>         0.1201
     45 H13        -2.5087   -5.6444    1.3280 H         1 <0>         0.1606
     46 H14        -2.7895   -7.5682    2.7798 H         1 <0>         0.1584
     47 H15        -2.8338   -9.8456    1.8905 H         1 <0>         0.1615
     48 H16        -2.6054  -10.3146   -0.4571 H         1 <0>         0.1611
     49 H17        -2.9481   -6.5987   -3.4930 H         1 <0>         0.1757
     50 H18        -1.1735   -6.7103   -3.3062 H         1 <0>         0.1746
     51 H19         2.7954   -0.7034   -0.8683 H         1 <0>         0.4112
     52 H20         5.5308    0.3723   -2.4747 H         1 <0>         0.0999
     53 H21         4.0214    0.4104   -3.4375 H         1 <0>         0.0878
     54 H22         6.2531    1.4389   -5.2288 H         1 <0>         0.1299
     55 H23         6.1358    5.6931   -4.8755 H         1 <0>         0.1312
     56 H24         4.8161    5.4878   -2.8168 H         1 <0>         0.1222
     57 H25         4.1963    4.1894    0.0189 H         1 <0>         0.0496
     58 H26         3.2244    4.8929   -1.2959 H         1 <0>         0.0691
     59 H27         2.5692    3.5541   -0.3230 H         1 <0>         0.0662
     60 H28         6.4014    5.5663   -6.9514 H         1 <0>         0.0539
     61 H29         7.9011    5.5285   -5.9934 H         1 <0>         0.0545
     62 H30         7.9094    4.9663   -7.6823 H         1 <0>         0.0998
     63 H31        -2.2542   -9.0248   -2.9190 H         1 <0>         0.4565
@<TRIPOS>BOND
     1    1    2 1
     2    1   35 1
     3    1   36 1
     4    1   37 1
     5    2    3 1
     6    2   38 1
     7    2   39 1
     8    3    4 1
     9    3    5 1
    10    3   19 1
    11    5    6 2
    12    5    7 am
    13    7    8 1
    14    7   40 1
    15    8    9 1
    16    8   41 1
    17    8   42 1
    18    9   10 1
    19    9   43 1
    20    9   44 1
    21   10   18 1
    22   10   11 2
    23   11   16 ar
    24   11   12 ar
    25   12   13 ar
    26   12   45 1
    27   13   14 ar
    28   13   46 1
    29   14   15 ar
    30   14   47 1
    31   15   16 ar
    32   15   48 1
    33   16   17 2
    34   17   18 1
    35   17   63 1
    36   18   49 1
    37   18   50 1
    38   19   20 am
    39   19   51 1
    40   20   21 2
    41   20   22 1
    42   22   23 1
    43   22   31 1
    44   22   24 1
    45   24   25 1
    46   24   52 1
    47   24   53 1
    48   25   30 ar
    49   25   26 ar
    50   26   27 ar
    51   26   54 1
    52   27   28 ar
    53   27   33 1
    54   28   29 ar
    55   28   55 1
    56   29   30 ar
    57   29   56 1
    58   30   31 1
    59   31   32 1
    60   32   57 1
    61   32   58 1
    62   32   59 1
    63   33   34 1
    64   34   60 1
    65   34   61 1
    66   34   62 1
