@<TRIPOS>MOLECULE
ZINC57808474
   51    52     0     0     0
SMALL
USER_CHARGES

@<TRIPOS>ATOM
      1 C1          0.9438    0.9822    0.0284 C.3       1 <0>        -0.1278
      2 C2          0.5896   -0.5028   -0.0727 C.3       1 <0>        -0.0861
      3 C3          1.6750   -1.3340    0.6143 C.3       1 <0>        -0.1575
      4 C4         -0.7553   -0.7541    0.6123 C.3       1 <0>        -0.1578
      5 C5          0.4961   -0.8993   -1.5236 C.2       1 <0>         0.5281
      6 O1          0.7453   -0.0891   -2.3909 O.2       1 <0>        -0.5327
      7 N1          0.1357   -2.1544   -1.8573 N.am      1 <0>        -0.6112
      8 C6         -0.0501   -3.1798   -0.8210 C.3       1 <0>         0.0654
      9 C7         -1.4580   -3.7712   -0.9636 C.3       1 <0>         0.1106
     10 N2         -1.6727   -4.1387   -2.3703 N.am      1 <0>        -0.6214
     11 C8         -1.4869   -3.1133   -3.4066 C.3       1 <0>         0.0948
     12 C9         -0.0844   -2.5205   -3.2635 C.3       1 <0>         0.0958
     13 C10        -2.0331   -5.3938   -2.7040 C.2       1 <0>         0.7092
     14 O2         -2.2810   -6.2067   -1.8344 O.2       1 <0>        -0.5550
     15 N3         -2.1188   -5.7478   -4.0016 N.am      1 <0>        -0.6783
     16 C11        -2.5795   -7.0234   -4.3504 C.ar      1 <0>         0.1758
     17 C12        -3.3097   -7.7693   -3.4395 C.ar      1 <0>        -0.0726
     18 C13        -3.7670   -9.0395   -3.7918 C.ar      1 <0>        -0.1071
     19 C14        -3.4859   -9.5511   -5.0603 C.ar      1 <0>        -0.0999
     20 C15        -2.7578   -8.8014   -5.9606 C.ar      1 <0>        -0.0897
     21 C16        -2.3090   -7.5392   -5.6134 C.ar      1 <0>        -0.0544
     22 Cl1        -1.4000   -6.5995   -6.7554 Cl        1 <0>        -0.0577
     23 C17        -4.5462   -9.8413   -2.8251 C.2       1 <0>         0.5569
     24 O3         -4.7895   -9.3943   -1.7212 O.2       1 <0>        -0.5223
     25 N4         -4.9869  -11.0681   -3.1676 N.am      1 <0>        -0.7310
     26 C18        -5.7592  -11.8628   -2.2094 C.3       1 <0>         0.0864
     27 H1          1.9019    1.1611   -0.4596 H         1 <0>         0.0633
     28 H2          0.1706    1.5743   -0.4610 H         1 <0>         0.0620
     29 H3          1.0114    1.2690    1.0778 H         1 <0>         0.0642
     30 H4          1.7763   -1.0135    1.6512 H         1 <0>         0.0732
     31 H5          1.3985   -2.3879    0.5852 H         1 <0>         0.0717
     32 H6          2.6234   -1.1927    0.0960 H         1 <0>         0.0633
     33 H7         -1.5378   -0.2048    0.0889 H         1 <0>         0.0628
     34 H8         -0.9815   -1.8201    0.5887 H         1 <0>         0.0720
     35 H9         -0.7045   -0.4163    1.6474 H         1 <0>         0.0731
     36 H10         0.6923   -3.9677   -0.9487 H         1 <0>         0.0780
     37 H11         0.0586   -2.7276    0.1648 H         1 <0>         0.1291
     38 H12        -1.5476   -4.6579   -0.3361 H         1 <0>         0.1123
     39 H13        -2.1983   -3.0302   -0.6620 H         1 <0>         0.0789
     40 H14        -1.5956   -3.5656   -4.3923 H         1 <0>         0.0870
     41 H15        -2.2292   -2.3255   -3.2789 H         1 <0>         0.0842
     42 H16         0.0016   -1.6330   -3.8903 H         1 <0>         0.1083
     43 H17         0.6554   -3.2603   -3.5690 H         1 <0>         0.0742
     44 H18        -1.8614   -5.1190   -4.6939 H         1 <0>         0.4102
     45 H19        -3.5240   -7.3690   -2.4596 H         1 <0>         0.1831
     46 H20        -3.8383  -10.5339   -5.3364 H         1 <0>         0.1370
     47 H21        -2.5411   -9.1989   -6.9411 H         1 <0>         0.1463
     48 H22        -4.7927  -11.4248   -4.0485 H         1 <0>         0.4017
     49 H23        -5.1596  -12.0383   -1.3162 H         1 <0>         0.0629
     50 H24        -6.6666  -11.3234   -1.9378 H         1 <0>         0.0627
     51 H25        -6.0260  -12.8182   -2.6613 H         1 <0>         0.0783
@<TRIPOS>BOND
     1    1    2 1
     2    1   27 1
     3    1   28 1
     4    1   29 1
     5    2    3 1
     6    2    4 1
     7    2    5 1
     8    3   30 1
     9    3   31 1
    10    3   32 1
    11    4   33 1
    12    4   34 1
    13    4   35 1
    14    5    6 2
    15    5    7 am
    16    7   12 1
    17    7    8 1
    18    8    9 1
    19    8   36 1
    20    8   37 1
    21    9   10 1
    22    9   38 1
    23    9   39 1
    24   10   11 1
    25   10   13 am
    26   11   12 1
    27   11   40 1
    28   11   41 1
    29   12   42 1
    30   12   43 1
    31   13   14 2
    32   13   15 am
    33   15   16 1
    34   15   44 1
    35   16   21 ar
    36   16   17 ar
    37   17   18 ar
    38   17   45 1
    39   18   19 ar
    40   18   23 1
    41   19   20 ar
    42   19   46 1
    43   20   21 ar
    44   20   47 1
    45   21   22 1
    46   23   24 2
    47   23   25 am
    48   25   26 1
    49   25   48 1
    50   26   49 1
    51   26   50 1
    52   26   51 1
