@<TRIPOS>MOLECULE
ZINC13745099
   37    38     0     0     0
SMALL
USER_CHARGES
1-[(1S)-1-(5-chloro-2-thienyl)ethyl]-3-(2-methoxy-4-nitro-phenyl)urea
@<TRIPOS>ATOM
      1 C1         -0.0387    1.0979    0.0183 C.3       1 <0>        -0.1637
      2 C2         -0.7443    1.5947    1.2818 C.3       1 <0>         0.2494
      3 H1         -0.7528    2.6846    1.2885 H         1 <0>         0.1179
      4 C3         -2.1610    1.0811    1.3008 C.2       1 <0>        -0.1576
      5 C4         -3.3056    1.7226    0.9625 C.2       1 <0>        -0.1302
      6 C5         -4.5075    1.0458    1.0589 C.2       1 <0>        -0.1363
      7 C6         -4.5045   -0.2405    1.4895 C.2       1 <0>        -0.1145
      8 S1         -2.7653   -0.5326    1.7676 S.3       1 <0>         0.0940
      9 Cl1        -5.8434   -1.3240    1.7066 Cl        1 <0>         0.0228
     10 N1         -0.0313    1.1046    2.4640 N.am      1 <0>        -0.7335
     11 C7          1.0278    1.7868    2.9431 C.2       1 <0>         0.7119
     12 O1          1.3914    2.8090    2.3941 O.2       1 <0>        -0.5639
     13 N2          1.6837    1.3359    4.0307 N.am      1 <0>        -0.6750
     14 C8          2.8403    1.9924    4.4738 C.ar      1 <0>         0.1943
     15 C9          2.9485    3.3697    4.3506 C.ar      1 <0>        -0.0877
     16 C10         4.0898    4.0148    4.7881 C.ar      1 <0>        -0.0638
     17 C11         5.1253    3.2905    5.3494 C.ar      1 <0>        -0.0245
     18 C12         5.0245    1.9174    5.4754 C.ar      1 <0>        -0.1308
     19 C13         3.8815    1.2639    5.0441 C.ar      1 <0>         0.1052
     20 O2          3.7786   -0.0859    5.1726 O.3       1 <0>        -0.3078
     21 C14         4.8853   -0.7673    5.7667 C.3       1 <0>         0.0211
     22 N3          6.3447    3.9871    5.8170 N.pl3     1 <0>         0.0295
     23 O3          6.4351    5.1968    5.7071 O.2       1 <0>        -0.1530
     24 O4          7.2578    3.3507    6.3117 O.3       1 <0>        -0.1625
     25 H2         -0.0302    0.0080    0.0116 H         1 <0>         0.0626
     26 H3          0.9860    1.4694    0.0046 H         1 <0>         0.0746
     27 H4         -0.5692    1.4625   -0.8613 H         1 <0>         0.0765
     28 H5         -3.2795    2.7473    0.6222 H         1 <0>         0.1468
     29 H6         -5.4343    1.5337    0.7951 H         1 <0>         0.1469
     30 H7         -0.3214    0.2892    2.9020 H         1 <0>         0.4002
     31 H8          1.3555    0.5572    4.5069 H         1 <0>         0.4174
     32 H9          2.1409    3.9380    3.9132 H         1 <0>         0.1733
     33 H10         4.1729    5.0872    4.6917 H         1 <0>         0.1609
     34 H11         5.8351    1.3546    5.9143 H         1 <0>         0.1627
     35 H12         4.6738   -1.8358    5.8090 H         1 <0>         0.1104
     36 H13         5.7803   -0.5975    5.1682 H         1 <0>         0.0630
     37 H14         5.0458   -0.3884    6.7760 H         1 <0>         0.0631
@<TRIPOS>BOND
     1    1    2 1
     2    1   25 1
     3    1   26 1
     4    1   27 1
     5    2    3 1
     6    2    4 1
     7    2   10 1
     8    4    8 1
     9    4    5 2
    10    5    6 1
    11    5   28 1
    12    6    7 2
    13    6   29 1
    14    7    8 1
    15    7    9 1
    16   10   11 am
    17   10   30 1
    18   11   12 2
    19   11   13 am
    20   13   14 1
    21   13   31 1
    22   14   19 ar
    23   14   15 ar
    24   15   16 ar
    25   15   32 1
    26   16   17 ar
    27   16   33 1
    28   17   18 ar
    29   17   22 1
    30   18   19 ar
    31   18   34 1
    32   19   20 1
    33   20   21 1
    34   21   35 1
    35   21   36 1
    36   21   37 1
    37   22   23 2
    38   22   24 1
