@<TRIPOS>MOLECULE
ZINC12517201
   49    51     0     0     0
SMALL
USER_CHARGES
(2S)-6-[[(1R)-2-(azepan-1-yl)-1-methyl-2-oxo-ethyl]amino]-2-methyl-4H-1,4-benzoxazin-3-one
@<TRIPOS>ATOM
      1 C1          4.6920    0.6616   -1.7221 C.3       1 <0>        -0.1766
      2 C2          4.7800    0.5331   -0.2000 C.3       1 <0>         0.0788
      3 H1          5.7242    0.0604    0.0703 H         1 <0>         0.1496
      4 C3          4.7087    1.9034    0.4242 C.2       1 <0>         0.4969
      5 O1          5.7261    2.5262    0.6438 O.2       1 <0>        -0.5087
      6 N1          3.5071    2.4351    0.7377 N.am      1 <0>        -0.6596
      7 C4          2.3484    1.6805    0.5059 C.ar      1 <0>         0.1460
      8 C5          1.1014    2.2827    0.5072 C.ar      1 <0>        -0.1991
      9 C6         -0.0341    1.5171    0.2773 C.ar      1 <0>         0.2333
     10 C7          0.0824    0.1524    0.0468 C.ar      1 <0>        -0.1934
     11 C8          1.3277   -0.4484    0.0449 C.ar      1 <0>        -0.0544
     12 C9          2.4619    0.3108    0.2735 C.ar      1 <0>         0.0197
     13 O2          3.6940   -0.2676    0.2736 O.3       1 <0>        -0.2986
     14 N2         -1.2959    2.1219    0.2720 N.pl3     1 <0>        -0.7281
     15 C10        -2.4936    1.3157    0.0235 C.3       1 <0>         0.1312
     16 H2         -2.3627    0.3261    0.4613 H         1 <0>         0.1045
     17 C11        -2.7139    1.1812   -1.4846 C.3       1 <0>        -0.1666
     18 C12        -3.6896    1.9871    0.6479 C.2       1 <0>         0.5083
     19 O3         -3.6279    3.1531    0.9758 O.2       1 <0>        -0.5305
     20 N3         -4.8277    1.2918    0.8420 N.am      1 <0>        -0.5987
     21 C13        -5.9879    1.9893    1.3498 C.3       1 <0>         0.1166
     22 C14        -5.9838    1.9619    2.8927 C.3       1 <0>        -0.1343
     23 C15        -6.2822    0.6064    3.3797 C.3       1 <0>        -0.1206
     24 C16        -5.2530   -0.4462    2.9789 C.3       1 <0>        -0.1177
     25 C17        -5.5828   -0.9694    1.6026 C.3       1 <0>        -0.1335
     26 C18        -4.8365   -0.1515    0.5330 C.3       1 <0>         0.1006
     27 H3          3.7474    1.1332   -1.9930 H         1 <0>         0.0659
     28 H4          5.5196    1.2719   -2.0836 H         1 <0>         0.0808
     29 H5          4.7464   -0.3288   -2.1741 H         1 <0>         0.0864
     30 H6          3.4469    3.3255    1.1178 H         1 <0>         0.4157
     31 H7          1.0123    3.3439    0.6869 H         1 <0>         0.1322
     32 H8         -0.8021   -0.4410   -0.1318 H         1 <0>         0.1312
     33 H9          1.4152   -1.5098   -0.1346 H         1 <0>         0.1399
     34 H10        -1.3776    3.0750    0.4330 H         1 <0>         0.4110
     35 H11        -3.6356    0.6294   -1.6694 H         1 <0>         0.0711
     36 H12        -2.7884    2.1729   -1.9308 H         1 <0>         0.0678
     37 H13        -1.8746    0.6454   -1.9280 H         1 <0>         0.0765
     38 H14        -5.9665    3.0247    1.0098 H         1 <0>         0.0834
     39 H15        -6.8924    1.5053    0.9814 H         1 <0>         0.0781
     40 H16        -6.7368    2.6544    3.2691 H         1 <0>         0.0743
     41 H17        -5.0025    2.2678    3.2555 H         1 <0>         0.0657
     42 H18        -7.2548    0.3052    2.9906 H         1 <0>         0.0604
     43 H19        -6.3403    0.6369    4.4677 H         1 <0>         0.0588
     44 H20        -5.2750   -1.2675    3.6951 H         1 <0>         0.0661
     45 H21        -4.2593    0.0015    2.9692 H         1 <0>         0.0627
     46 H22        -6.6568   -0.8906    1.4338 H         1 <0>         0.0711
     47 H23        -5.2818   -2.0147    1.5336 H         1 <0>         0.0804
     48 H24        -5.3213   -0.3040   -0.4313 H         1 <0>         0.0719
     49 H25        -3.8078   -0.5066    0.4717 H         1 <0>         0.0835
@<TRIPOS>BOND
     1    1    2 1
     2    1   27 1
     3    1   28 1
     4    1   29 1
     5    2    3 1
     6    2   13 1
     7    2    4 1
     8    4    5 2
     9    4    6 am
    10    6    7 1
    11    6   30 1
    12    7   12 ar
    13    7    8 ar
    14    8    9 ar
    15    8   31 1
    16    9   10 ar
    17    9   14 1
    18   10   11 ar
    19   10   32 1
    20   11   12 ar
    21   11   33 1
    22   12   13 1
    23   14   15 1
    24   14   34 1
    25   15   16 1
    26   15   17 1
    27   15   18 1
    28   17   35 1
    29   17   36 1
    30   17   37 1
    31   18   19 2
    32   18   20 am
    33   20   26 1
    34   20   21 1
    35   21   22 1
    36   21   38 1
    37   21   39 1
    38   22   23 1
    39   22   40 1
    40   22   41 1
    41   23   24 1
    42   23   42 1
    43   23   43 1
    44   24   25 1
    45   24   44 1
    46   24   45 1
    47   25   26 1
    48   25   46 1
    49   25   47 1
    50   26   48 1
    51   26   49 1
