@<TRIPOS>MOLECULE
ZINC16675756
   45    47     0     0     0
SMALL
USER_CHARGES

@<TRIPOS>ATOM
      1 C1         -0.4818    2.7873    0.5981 C.3       1 <0>        -0.1802
      2 C2         -0.5476    1.3095    0.3104 C.2       1 <0>         0.2420
      3 N1         -0.4703    0.4549    1.2838 N.2       1 <0>        -0.3097
      4 N2         -0.3257    0.9061    2.6023 N.pl3     1 <0>        -0.5120
      5 C3         -0.2437   -0.0008    3.6353 C.cat     1 <0>         0.4953
      6 N3         -0.3006   -1.2801    3.3862 N.pl3     1 <0>        -0.7100
      7 S1         -0.0617    0.5667    5.2934 S.3       1 <0>         0.1369
      8 C4         -0.0003   -0.9577    6.2747 C.3       1 <0>        -0.1705
      9 H1          0.7788   -1.6221    5.9008 H         1 <0>         0.1754
     10 C5          0.2308   -0.6350    7.7650 C.3       1 <0>        -0.1222
     11 C6         -1.0078   -1.1799    8.4421 C.2       1 <0>         0.5251
     12 O1         -1.2355   -1.1339    9.6320 O.2       1 <0>        -0.4220
     13 N4         -1.8127   -1.7203    7.5189 N.am      1 <0>        -0.5106
     14 C7         -1.3441   -1.6532    6.2630 C.2       1 <0>         0.5332
     15 O2         -1.9058   -2.0790    5.2767 O.2       1 <0>        -0.4553
     16 C8         -3.0443   -2.3106    7.8377 C.ar      1 <0>         0.0899
     17 C9         -3.2192   -3.6794    7.6860 C.ar      1 <0>        -0.0818
     18 C10        -4.4330   -4.2584    8.0006 C.ar      1 <0>        -0.0967
     19 C11        -5.4743   -3.4752    8.4667 C.ar      1 <0>        -0.0154
     20 C12        -5.3025   -2.1105    8.6182 C.ar      1 <0>        -0.0961
     21 C13        -4.0886   -1.5278    8.3108 C.ar      1 <0>        -0.0803
     22 Cl1        -6.9989   -4.2059    8.8612 Cl        1 <0>        -0.0429
     23 C14        -0.6999    0.8345   -1.0775 C.ar      1 <0>        -0.0865
     24 C15        -0.7776    1.7518   -2.1282 C.ar      1 <0>        -0.0585
     25 C16        -0.9195    1.3010   -3.4238 C.ar      1 <0>        -0.1130
     26 C17        -0.9849   -0.0576   -3.6843 C.ar      1 <0>         0.0010
     27 C18        -0.9085   -0.9721   -2.6471 C.ar      1 <0>        -0.1172
     28 C19        -0.7612   -0.5347   -1.3475 C.ar      1 <0>        -0.0526
     29 Cl2        -1.1641   -0.6166   -5.3180 Cl        1 <0>        -0.0416
     30 H2          0.5562    3.1182    0.5640 H         1 <0>         0.1125
     31 H3         -1.0607    3.3292   -0.1498 H         1 <0>         0.1125
     32 H4         -0.8934    2.9834    1.5882 H         1 <0>         0.0789
     33 H5         -0.2833    1.8573    2.7875 H         1 <0>         0.4247
     34 H6         -0.2428   -1.9189    4.1138 H         1 <0>         0.4377
     35 H7          1.1233   -1.1410    8.1332 H         1 <0>         0.1625
     36 H8          0.3089    0.4416    7.9168 H         1 <0>         0.1452
     37 H9         -2.4068   -4.2909    7.3220 H         1 <0>         0.1380
     38 H10        -4.5696   -5.3232    7.8824 H         1 <0>         0.1493
     39 H11        -6.1168   -1.5012    8.9818 H         1 <0>         0.1498
     40 H12        -3.9534   -0.4634    8.4339 H         1 <0>         0.1392
     41 H13        -0.7271    2.8115   -1.9264 H         1 <0>         0.1468
     42 H14        -0.9800    2.0091   -4.2371 H         1 <0>         0.1494
     43 H15        -0.9605   -2.0303   -2.8568 H         1 <0>         0.1464
     44 H16        -0.6973   -1.2490   -0.5400 H         1 <0>         0.1409
     45 H17        -0.4008   -1.5925    2.4734 H         1 <0>         0.4430
@<TRIPOS>BOND
     1    1    2 1
     2    1   30 1
     3    1   31 1
     4    1   32 1
     5    2    3 2
     6    2   23 1
     7    3    4 1
     8    4    5 1
     9    4   33 1
    10    5    6 2
    11    5    7 1
    12    6   34 1
    13    6   45 1
    14    7    8 1
    15    8    9 1
    16    8   14 1
    17    8   10 1
    18   10   11 1
    19   10   35 1
    20   10   36 1
    21   11   12 2
    22   11   13 am
    23   13   14 am
    24   13   16 1
    25   14   15 2
    26   16   21 ar
    27   16   17 ar
    28   17   18 ar
    29   17   37 1
    30   18   19 ar
    31   18   38 1
    32   19   20 ar
    33   19   22 1
    34   20   21 ar
    35   20   39 1
    36   21   40 1
    37   23   28 ar
    38   23   24 ar
    39   24   25 ar
    40   24   41 1
    41   25   26 ar
    42   25   42 1
    43   26   27 ar
    44   26   29 1
    45   27   28 ar
    46   27   43 1
    47   28   44 1
