@<TRIPOS>MOLECULE
ZINC06149091
   74    77     0     0     0
SMALL
USER_CHARGES
ethyl 1-[(6,7-dimethoxy-2-oxo-1H-quinolin-3-yl)-[1-(1,1-dimethylpropyl)tetrazol-5-yl]-methyl]piperidine-4-carboxylate
@<TRIPOS>ATOM
      1 C1         -5.4501    8.0036    3.8840 C.3       1 <0>        -0.1572
      2 C2         -6.0524    6.6076    3.7123 C.3       1 <0>        -0.1220
      3 C3         -5.4786    5.9561    2.4525 C.3       1 <0>         0.1540
      4 C4         -3.9585    5.8431    2.5839 C.3       1 <0>        -0.1757
      5 C5         -5.8227    6.8136    1.2329 C.3       1 <0>        -0.1716
      6 N1         -6.0553    4.6195    2.2880 N.pl3     1 <0>        -0.2727
      7 C6         -5.7514    3.7307    1.3240 C.2       1 <0>         0.1120
      8 N2         -6.4863    2.6684    1.5464 N.2       1 <0>        -0.2412
      9 N3         -7.2078    2.8950    2.5895 N.2       1 <0>        -0.0591
     10 N4         -6.9523    4.0742    3.0382 N.2       1 <0>        -0.0538
     11 C7         -4.7549    3.9181    0.2091 C.3       1 <0>         0.2084
     12 H1         -4.4180    4.9546    0.1933 H         1 <0>         0.1631
     13 C8         -3.5737    3.0095    0.4332 C.2       1 <0>        -0.2888
     14 C9         -2.3496    3.5408    0.6819 C.2       1 <0>         0.0739
     15 C10        -1.2234    2.6329    0.8956 C.ar      1 <0>        -0.1547
     16 C11         0.0620    3.1255    1.1556 C.ar      1 <0>        -0.1129
     17 C12         1.1023    2.2446    1.3521 C.ar      1 <0>         0.0889
     18 C13         0.8791    0.8649    1.2928 C.ar      1 <0>         0.1986
     19 C14        -0.3854    0.3686    1.0369 C.ar      1 <0>        -0.2384
     20 C15        -1.4451    1.2435    0.8311 C.ar      1 <0>         0.2206
     21 N5         -2.7159    0.7676    0.5791 N.am      1 <0>        -0.6161
     22 H2         -2.8740   -0.2191    0.5410 H         1 <0>         0.4343
     23 C16        -3.7443    1.6112    0.3841 C.2       1 <0>         0.5442
     24 O1         -4.8525    1.1554    0.1596 O.2       1 <0>        -0.5211
     25 O2          1.9131    0.0061    1.4878 O.3       1 <0>        -0.2861
     26 C17         1.6194   -1.3904    1.4140 C.3       1 <0>         0.0163
     27 O3          2.3523    2.7181    1.6044 O.3       1 <0>        -0.2963
     28 C18         2.5111    4.1375    1.6513 C.3       1 <0>         0.0211
     29 C19        -4.4439    3.7568   -2.1862 C.3       1 <0>        -0.0004
     30 C20        -5.0902    3.2688   -3.4847 C.3       1 <0>        -0.1379
     31 C21        -6.3653    4.0745   -3.7486 C.3       1 <0>        -0.0918
     32 C22        -7.3120    3.9222   -2.5549 C.3       1 <0>        -0.1309
     33 C23        -6.6013    4.3913   -1.2833 C.3       1 <0>        -0.0044
     34 C24        -7.0390    3.5597   -4.9945 C.2       1 <0>         0.4643
     35 O4         -8.1614    3.1163   -4.9351 O.2       1 <0>        -0.4901
     36 O5         -6.3922    3.5939   -6.1702 O.3       1 <0>        -0.3546
     37 C25        -7.1023    3.0814   -7.3284 C.3       1 <0>         0.0626
     38 C26        -6.2121    3.2020   -8.5669 C.3       1 <0>        -0.1555
     39 H3         -4.3672    7.9231    3.9777 H         1 <0>         0.0646
     40 H4         -5.6953    8.6145    3.0152 H         1 <0>         0.0648
     41 H5         -5.8589    8.4678    4.7816 H         1 <0>         0.0750
     42 H6         -7.1354    6.6882    3.6187 H         1 <0>         0.0874
     43 H7         -5.8072    5.9968    4.5811 H         1 <0>         0.0852
     44 H8         -3.5497    5.3789    1.6863 H         1 <0>         0.0571
     45 H9         -3.5294    6.8376    2.7062 H         1 <0>         0.1103
     46 H10        -3.7133    5.2322    3.4527 H         1 <0>         0.0824
     47 H11        -6.8990    6.9831    1.2000 H         1 <0>         0.0854
     48 H12        -5.3061    7.7707    1.3043 H         1 <0>         0.1102
     49 H13        -5.5083    6.2977    0.3257 H         1 <0>         0.0521
     50 H14        -2.2103    4.6111    0.7209 H         1 <0>         0.1569
     51 H15         0.2362    4.1904    1.2021 H         1 <0>         0.1559
     52 H16        -0.5487   -0.6981    0.9926 H         1 <0>         0.1565
     53 H17         2.5304   -1.9630    1.5878 H         1 <0>         0.1150
     54 H18         0.8790   -1.6466    2.1718 H         1 <0>         0.0650
     55 H19         1.2247   -1.6269    0.4258 H         1 <0>         0.0650
     56 H20         2.2232    4.5672    0.6919 H         1 <0>         0.0597
     57 H21         1.8780    4.5481    2.4379 H         1 <0>         0.0593
     58 H22         3.5531    4.3798    1.8600 H         1 <0>         0.1107
     59 H23        -4.1816    4.8102   -2.2846 H         1 <0>         0.1390
     60 H24        -3.5434    3.1755   -1.9880 H         1 <0>         0.1343
     61 H25        -5.3402    2.2119   -3.3920 H         1 <0>         0.0978
     62 H26        -4.3943    3.4075   -4.3121 H         1 <0>         0.1316
     63 H27        -6.1110    5.1262   -3.8801 H         1 <0>         0.1294
     64 H28        -7.5970    2.8756   -2.4475 H         1 <0>         0.1043
     65 H29        -8.2039    4.5274   -2.7175 H         1 <0>         0.1257
     66 H30        -7.2677    4.2708   -0.4292 H         1 <0>         0.1253
     67 H31        -6.3289    5.4417   -1.3861 H         1 <0>         0.1355
     68 H32        -7.3569    2.0343   -7.1645 H         1 <0>         0.0749
     69 H33        -8.0150    3.6579   -7.4794 H         1 <0>         0.0756
     70 H34        -5.9575    4.2491   -8.7308 H         1 <0>         0.0692
     71 H35        -5.2994    2.6255   -8.4159 H         1 <0>         0.0683
     72 H36        -6.7452    2.8173   -9.4363 H         1 <0>         0.0866
     73 N6         -5.3967    3.5607   -1.0728 N.4       1 <0>        -0.3932
     74 H37        -5.6746    2.5727   -1.0424 H         1 <0>         0.4479
@<TRIPOS>BOND
     1    1    2 1
     2    1   39 1
     3    1   40 1
     4    1   41 1
     5    2    3 1
     6    2   42 1
     7    2   43 1
     8    3    4 1
     9    3    5 1
    10    3    6 1
    11    4   44 1
    12    4   45 1
    13    4   46 1
    14    5   47 1
    15    5   48 1
    16    5   49 1
    17    6   10 1
    18    6    7 1
    19    7    8 2
    20    7   11 1
    21    8    9 1
    22    9   10 2
    23   11   12 1
    24   11   13 1
    25   11   73 1
    26   13   23 1
    27   13   14 2
    28   14   15 1
    29   14   50 1
    30   15   20 ar
    31   15   16 ar
    32   16   17 ar
    33   16   51 1
    34   17   18 ar
    35   17   27 1
    36   18   19 ar
    37   18   25 1
    38   19   20 ar
    39   19   52 1
    40   20   21 1
    41   21   22 1
    42   21   23 am
    43   23   24 2
    44   25   26 1
    45   26   53 1
    46   26   54 1
    47   26   55 1
    48   27   28 1
    49   28   56 1
    50   28   57 1
    51   28   58 1
    52   29   30 1
    53   29   59 1
    54   29   60 1
    55   29   73 1
    56   30   31 1
    57   30   61 1
    58   30   62 1
    59   31   32 1
    60   31   34 1
    61   31   63 1
    62   32   33 1
    63   32   64 1
    64   32   65 1
    65   33   66 1
    66   33   67 1
    67   33   73 1
    68   34   35 2
    69   34   36 1
    70   36   37 1
    71   37   38 1
    72   37   68 1
    73   37   69 1
    74   38   70 1
    75   38   71 1
    76   38   72 1
    77   73   74 1
