@<TRIPOS>MOLECULE
ZINC39674754
   78    82     0     0     0
SMALL
USER_CHARGES

@<TRIPOS>ATOM
      1 C1         -4.9099    0.7228    5.0214 C.3       1 <0>        -0.1568
      2 C2         -3.6899    0.8059    4.1018 C.3       1 <0>         0.0935
      3 H1         -3.4768    1.8458    3.8542 H         1 <0>         0.1816
      4 C3         -3.9332    0.0092    2.8402 C.2       1 <0>         0.0786
      5 C4         -2.9775   -0.9545    2.8143 C.ar      1 <0>        -0.1600
      6 C5         -2.7026   -1.9909    1.8837 C.ar      1 <0>        -0.0098
      7 C6         -1.6510   -2.8510    2.0997 C.ar      1 <0>        -0.0123
      8 C7         -0.7982   -2.7244    3.2764 C.ar      1 <0>         0.0557
      9 C8         -1.0115   -1.7587    4.1940 C.ar      1 <0>        -0.1753
     10 C9         -2.1205   -0.8153    4.0122 C.ar      1 <0>         0.3410
     11 N1         -2.5261    0.1918    4.7493 N.pl3     1 <0>        -0.5675
     12 C10        -1.3882   -3.8907    1.1506 C.1       1 <0>         0.2168
     13 N2         -1.1796   -4.7155    0.3978 N.1       1 <0>        -0.3458
     14 C11        -5.0173    0.2382    1.8187 C.3       1 <0>        -0.1045
     15 C12        -4.8937   -0.8007    0.7023 C.3       1 <0>         0.0984
     16 N3         -5.9476   -0.5781   -0.2907 N.am      1 <0>        -0.7350
     17 C13        -6.0355   -1.3791   -1.3711 C.2       1 <0>         0.5224
     18 O1         -5.2422   -2.2840   -1.5212 O.2       1 <0>        -0.5083
     19 C14        -7.1196   -1.1501   -2.3925 C.3       1 <0>        -0.1151
     20 H2         -7.3893   -0.0946   -2.4286 H         1 <0>         0.1212
     21 C15        -6.6579   -1.6352   -3.7850 C.3       1 <0>         0.1124
     22 N4         -7.1894   -3.0140   -3.8963 N.am      1 <0>        -0.6197
     23 C16        -8.5348   -2.9415   -3.2777 C.3       1 <0>         0.1043
     24 C17        -8.3538   -2.0072   -2.0648 C.3       1 <0>        -0.0735
     25 C18        -9.5830   -1.1200   -1.8934 C.3       1 <0>        -0.1330
     26 C19       -10.7846   -1.9886   -1.5107 C.3       1 <0>        -0.0120
     27 N5        -10.4953   -2.7048   -0.2625 N.4       1 <0>        -0.5041
     28 C20        -9.3695   -3.6252   -0.4628 C.3       1 <0>        -0.0104
     29 C21        -8.1081   -2.8258   -0.8011 C.3       1 <0>        -0.1440
     30 C22        -6.5862   -4.0907   -4.4380 C.2       1 <0>         0.5518
     31 O2         -7.1564   -5.1609   -4.4545 O.2       1 <0>        -0.5244
     32 C23        -5.2032   -3.9646   -5.0231 C.3       1 <0>        -0.1000
     33 C24        -5.2216   -2.9390   -6.1588 C.3       1 <0>        -0.1293
     34 C25        -3.8075   -2.7880   -6.7282 C.3       1 <0>         0.1126
     35 N6         -3.3117   -4.1142   -7.1208 N.am      1 <0>        -0.6197
     36 C26        -3.3347   -5.1988   -6.1299 C.3       1 <0>         0.1043
     37 C27        -4.7541   -5.3227   -5.5673 C.3       1 <0>        -0.1168
     38 C28        -2.8453   -4.3319   -8.3664 C.2       1 <0>         0.5154
     39 O3         -2.8320   -3.4284   -9.1754 O.2       1 <0>        -0.5390
     40 C29        -2.3402   -5.6978   -8.7539 C.3       1 <0>        -0.1789
     41 H3         -4.7157    1.2857    5.9344 H         1 <0>         0.1008
     42 H4         -5.7775    1.1434    4.5130 H         1 <0>         0.1069
     43 H5         -5.1057   -0.3197    5.2720 H         1 <0>         0.0838
     44 H6         -3.3203   -2.1043    1.0051 H         1 <0>         0.1753
     45 H7          0.0194   -3.4163    3.4154 H         1 <0>         0.1759
     46 H8         -0.3693   -1.6809    5.0588 H         1 <0>         0.1778
     47 H9         -5.9925    0.1439    2.2965 H         1 <0>         0.1311
     48 H10        -4.9142    1.2382    1.3975 H         1 <0>         0.1362
     49 H11        -3.9186   -0.7064    0.2246 H         1 <0>         0.0886
     50 H12        -4.9968   -1.8007    1.1236 H         1 <0>         0.0854
     51 H13        -6.5821    0.1457   -0.1706 H         1 <0>         0.4058
     52 H14        -7.0776   -1.0019   -4.5665 H         1 <0>         0.0942
     53 H15        -5.5695   -1.6416   -3.8435 H         1 <0>         0.1004
     54 H16        -9.2537   -2.5179   -3.9790 H         1 <0>         0.0866
     55 H17        -8.8574   -3.9303   -2.9516 H         1 <0>         0.0890
     56 H18        -9.3972   -0.3889   -1.1066 H         1 <0>         0.0962
     57 H19        -9.7916   -0.6024   -2.8297 H         1 <0>         0.1242
     58 H20       -11.6607   -1.3552   -1.3712 H         1 <0>         0.1428
     59 H21       -10.9801   -2.7084   -2.3054 H         1 <0>         0.1350
     60 H22       -10.2599   -2.0396    0.4587 H         1 <0>         0.4251
     61 H23        -9.2025   -4.1984    0.4491 H         1 <0>         0.1381
     62 H24        -9.5986   -4.3061   -1.2825 H         1 <0>         0.1364
     63 H25        -7.2768   -3.5110   -0.9673 H         1 <0>         0.1214
     64 H26        -7.8689   -2.1565    0.0253 H         1 <0>         0.0910
     65 H27        -4.5098   -3.6364   -4.2488 H         1 <0>         0.1038
     66 H28        -5.8960   -3.2786   -6.9449 H         1 <0>         0.0764
     67 H29        -5.5639   -1.9777   -5.7754 H         1 <0>         0.0783
     68 H30        -3.8324   -2.1344   -7.6001 H         1 <0>         0.0999
     69 H31        -3.1513   -2.3628   -5.9688 H         1 <0>         0.0678
     70 H32        -3.0477   -6.1359   -6.6071 H         1 <0>         0.0990
     71 H33        -2.6399   -4.9702   -5.3218 H         1 <0>         0.0720
     72 H34        -4.7637   -6.0582   -4.7628 H         1 <0>         0.0853
     73 H35        -5.4329   -5.6399   -6.3589 H         1 <0>         0.0788
     74 H36        -3.1632   -6.2891   -9.1554 H         1 <0>         0.0972
     75 H37        -1.5626   -5.5963   -9.5110 H         1 <0>         0.0977
     76 H38        -1.9295   -6.1960   -7.8757 H         1 <0>         0.0835
     77 H39        -2.1244    0.4818    5.5833 H         1 <0>         0.4607
     78 H40       -11.3102   -3.2286    0.0198 H         1 <0>         0.4371
@<TRIPOS>BOND
     1    1    2 1
     2    1   41 1
     3    1   42 1
     4    1   43 1
     5    2    3 1
     6    2   11 1
     7    2    4 1
     8    4    5 2
     9    4   14 1
    10    5   10 ar
    11    5    6 ar
    12    6    7 ar
    13    6   44 1
    14    7    8 ar
    15    7   12 1
    16    8    9 ar
    17    8   45 1
    18    9   10 ar
    19    9   46 1
    20   10   11 2
    21   11   77 1
    22   12   13 3
    23   14   15 1
    24   14   47 1
    25   14   48 1
    26   15   16 1
    27   15   49 1
    28   15   50 1
    29   16   17 am
    30   16   51 1
    31   17   18 2
    32   17   19 1
    33   19   20 1
    34   19   24 1
    35   19   21 1
    36   21   22 1
    37   21   52 1
    38   21   53 1
    39   22   23 1
    40   22   30 am
    41   23   24 1
    42   23   54 1
    43   23   55 1
    44   24   29 1
    45   24   25 1
    46   25   26 1
    47   25   56 1
    48   25   57 1
    49   26   27 1
    50   26   58 1
    51   26   59 1
    52   27   28 1
    53   27   60 1
    54   27   78 1
    55   28   29 1
    56   28   61 1
    57   28   62 1
    58   29   63 1
    59   29   64 1
    60   30   31 2
    61   30   32 1
    62   32   37 1
    63   32   33 1
    64   32   65 1
    65   33   34 1
    66   33   66 1
    67   33   67 1
    68   34   35 1
    69   34   68 1
    70   34   69 1
    71   35   36 1
    72   35   38 am
    73   36   37 1
    74   36   70 1
    75   36   71 1
    76   37   72 1
    77   37   73 1
    78   38   39 2
    79   38   40 1
    80   40   74 1
    81   40   75 1
    82   40   76 1
