@<TRIPOS>MOLECULE
ZINC39774332
   41    45     0     0     0
SMALL
USER_CHARGES

@<TRIPOS>ATOM
      1 C1         -0.0184    1.5028    0.0103 C.3       1 <0>        -0.1216
      2 C2          0.0021   -0.0041    0.0020 C.ar      1 <0>        -0.0939
      3 C3          0.0058   -0.6862   -1.1974 C.ar      1 <0>         0.0095
      4 C4          0.0251   -2.0795   -1.1997 C.ar      1 <0>        -0.1411
      5 C5          0.0409   -2.7899    0.0107 C.ar      1 <0>         0.2081
      6 C6          0.0369   -2.0836    1.2083 C.ar      1 <0>        -0.1122
      7 C7          0.0229   -0.7018    1.1984 C.ar      1 <0>         0.0057
      8 Br1         0.0578   -3.0155    2.8536 Br        1 <0>         0.0053
      9 N1          0.0586   -4.1533   -0.2590 N.am      1 <0>        -0.6277
     10 C8          0.0555   -4.3901   -1.5820 C.2       1 <0>         0.5337
     11 O1          0.0678   -5.4850   -2.1133 O.2       1 <0>        -0.4564
     12 C9          0.0340   -3.0891   -2.2764 C.2       1 <0>         0.2285
     13 N2          0.0240   -2.8735   -3.5829 N.2       1 <0>        -0.2676
     14 N3          0.0340   -3.8706   -4.4012 N.pl3     1 <0>        -0.3466
     15 C10         0.0240   -3.6539   -5.7143 C.cat     1 <0>         0.6273
     16 N4          0.0084   -2.3493   -6.1972 N.pl3     1 <0>        -0.6924
     17 C11        -0.6559   -2.1883   -7.4916 C.3       1 <0>         0.3157
     18 H1         -1.7358   -2.2582   -7.3608 H         1 <0>         0.2105
     19 C12        -0.1677   -3.3482   -8.3497 C.2       1 <0>        -0.0447
     20 C13         0.1677   -2.7870   -9.5516 C.ar      1 <0>         0.0878
     21 C14         0.5603   -3.3525  -10.7862 C.ar      1 <0>        -0.0888
     22 C15         0.8480   -2.4955  -11.8048 C.ar      1 <0>        -0.0224
     23 C16         0.7792   -1.1037  -11.7031 C.ar      1 <0>         0.0384
     24 C17         0.4067   -0.4527  -10.5680 C.ar      1 <0>        -0.1528
     25 C18         0.0678   -1.3020   -9.4140 C.ar      1 <0>         0.3531
     26 N5         -0.3300   -0.9797   -8.2272 N.pl3     1 <0>        -0.5141
     27 N6          0.0155   -4.5624   -7.8446 N.2       1 <0>         0.0615
     28 N7          0.0345   -4.6949   -6.5592 N.2       1 <0>        -0.1758
     29 H2          1.0042    1.8801    0.0026 H         1 <0>         0.0868
     30 H3         -0.5455    1.8639   -0.8728 H         1 <0>         0.0772
     31 H4         -0.5286    1.8543    0.9071 H         1 <0>         0.0846
     32 H5         -0.0067   -0.1425   -2.1305 H         1 <0>         0.1506
     33 H6          0.0240   -0.1605    2.1330 H         1 <0>         0.1649
     34 H7          0.0715   -4.8453    0.4206 H         1 <0>         0.4455
     35 H8          0.6296   -4.4224  -10.9166 H         1 <0>         0.1981
     36 H9          1.1490   -2.9188  -12.7517 H         1 <0>         0.1851
     37 H10         1.0355   -0.5138  -12.5707 H         1 <0>         0.1912
     38 H11         0.3614    0.6251  -10.5166 H         1 <0>         0.2015
     39 H12        -0.4004   -0.0742   -7.8866 H         1 <0>         0.4764
     40 H13         0.4052   -1.6069   -5.7153 H         1 <0>         0.4595
     41 H14         0.0489   -4.7783   -4.0596 H         1 <0>         0.4516
@<TRIPOS>BOND
     1    1    2 1
     2    1   29 1
     3    1   30 1
     4    1   31 1
     5    2    7 ar
     6    2    3 ar
     7    3    4 ar
     8    3   32 1
     9    4   12 1
    10    4    5 ar
    11    5    6 ar
    12    5    9 1
    13    6    7 ar
    14    6    8 1
    15    7   33 1
    16    9   10 am
    17    9   34 1
    18   10   11 2
    19   10   12 1
    20   12   13 2
    21   13   14 1
    22   14   15 2
    23   14   41 1
    24   15   28 1
    25   15   16 1
    26   16   17 1
    27   16   40 1
    28   17   18 1
    29   17   26 1
    30   17   19 1
    31   19   20 2
    32   19   27 1
    33   20   25 ar
    34   20   21 ar
    35   21   22 ar
    36   21   35 1
    37   22   23 ar
    38   22   36 1
    39   23   24 ar
    40   23   37 1
    41   24   25 ar
    42   24   38 1
    43   25   26 2
    44   26   39 1
    45   27   28 2
