@<TRIPOS>MOLECULE
ZINC09186009
   56    59     0     0     0
SMALL
USER_CHARGES
N-[[2-morpholino-3-[(4-nitrophenyl)methylene]-1-cyclopentenyl]methyleneamino]-5-nitro-pyrimidine-4,6-diamine
@<TRIPOS>ATOM
      1 C1          8.8014    0.7371    0.9791 C.ar      1 <0>        -0.1186
      2 C2          9.4469   -0.4789    0.9998 C.ar      1 <0>        -0.0517
      3 C3          8.8786   -1.5810    0.3812 C.ar      1 <0>        -0.0074
      4 C4          7.6544   -1.4734   -0.2594 C.ar      1 <0>        -0.0538
      5 C5          6.9902   -0.2676   -0.2868 C.ar      1 <0>        -0.0897
      6 C6          7.5576    0.8556    0.3372 C.ar      1 <0>         0.0215
      7 C7          6.8609    2.1413    0.3136 C.2       1 <0>        -0.1304
      8 C8          5.4940    2.1901    0.5098 C.2       1 <0>        -0.0584
      9 C9          4.6021    3.3453    0.1305 C.3       1 <0>        -0.0908
     10 C10         3.1776    2.9365    0.5353 C.3       1 <0>        -0.0705
     11 C11         3.3150    1.5592    1.1418 C.2       1 <0>        -0.1101
     12 C12         4.7305    1.1811    1.0869 C.2       1 <0>         0.1930
     13 N1          5.2320   -0.0033    1.5416 N.pl3     1 <0>        -0.6330
     14 C13         6.2731   -0.0359    2.5810 C.3       1 <0>         0.0903
     15 C14         5.8185   -1.0051    3.6841 C.3       1 <0>         0.0451
     16 O1          5.4731   -2.2600    3.0927 O.3       1 <0>        -0.3723
     17 C15         4.3757   -2.1939    2.1789 C.3       1 <0>         0.0442
     18 C16         4.7523   -1.2858    1.0027 C.3       1 <0>         0.0824
     19 C17         2.3012    0.8001    1.6455 C.2       1 <0>         0.0868
     20 N2          1.0673    1.3033    1.7267 N.2       1 <0>        -0.2249
     21 N3          0.1078    0.5848    2.2034 N.pl3     1 <0>        -0.4888
     22 C18        -1.1750    1.1056    2.2824 C.ar      1 <0>         0.5218
     23 C19        -2.2192    0.3375    2.7897 C.ar      1 <0>        -0.2290
     24 C20        -3.4904    0.9085    2.8476 C.ar      1 <0>         0.5239
     25 N4         -3.6568    2.1568    2.4190 N.ar      1 <0>        -0.5805
     26 C21        -2.6412    2.8508    1.9453 C.ar      1 <0>         0.4108
     27 N5         -1.4254    2.3503    1.8791 N.ar      1 <0>        -0.5470
     28 N6         -4.5639    0.1862    3.3436 N.pl3     1 <0>        -0.8138
     29 N7         -1.9868   -1.0484    3.2549 N.pl3     1 <0>        -0.0305
     30 O2         -1.6603   -1.2755    4.5104 O.2       1 <0>        -0.1321
     31 O3         -2.1064   -2.0542    2.4132 O.3       1 <0>        -0.1310
     32 N8          9.5837   -2.8823    0.4050 N.pl3     1 <0>        -0.0172
     33 O4          9.0475   -3.9327   -0.1811 O.2       1 <0>        -0.1716
     34 O5         10.7473   -2.9896    1.0124 O.3       1 <0>        -0.1732
     35 H1          9.2480    1.5960    1.4579 H         1 <0>         0.1509
     36 H2         10.4012   -0.5731    1.4967 H         1 <0>         0.1556
     37 H3          7.2200   -2.3381   -0.7389 H         1 <0>         0.1536
     38 H4          6.0361   -0.1857   -0.7862 H         1 <0>         0.1447
     39 H5          7.4148    3.0526    0.1428 H         1 <0>         0.1435
     40 H6          4.9047    4.2445    0.6672 H         1 <0>         0.0892
     41 H7          4.6487    3.5175   -0.9448 H         1 <0>         0.0921
     42 H8          2.5295    2.9008   -0.3404 H         1 <0>         0.0849
     43 H9          2.7808    3.6356    1.2714 H         1 <0>         0.0883
     44 H10         7.2124   -0.3814    2.1491 H         1 <0>         0.0719
     45 H11         6.4057    0.9619    2.9992 H         1 <0>         0.0866
     46 H12         4.9501   -0.5937    4.1986 H         1 <0>         0.0552
     47 H13         6.6297   -1.1499    4.3977 H         1 <0>         0.1030
     48 H14         3.5020   -1.7869    2.6879 H         1 <0>         0.0492
     49 H15         4.1485   -3.1937    1.8088 H         1 <0>         0.1057
     50 H16         3.8773   -1.1161    0.3751 H         1 <0>         0.0868
     51 H17         5.5408   -1.7546    0.4140 H         1 <0>         0.0792
     52 H18         2.4960   -0.2085    1.9789 H         1 <0>         0.1108
     53 H19         0.2828   -0.3210    2.5028 H         1 <0>         0.3891
     54 H20        -2.8107    3.8619    1.6056 H         1 <0>         0.2240
     55 H21        -4.4344   -0.7237    3.6539 H         1 <0>         0.4165
     56 H22        -5.4449    0.5904    3.3806 H         1 <0>         0.4255
@<TRIPOS>BOND
     1    1    6 ar
     2    1    2 ar
     3    1   35 1
     4    2    3 ar
     5    2   36 1
     6    3    4 ar
     7    3   32 1
     8    4    5 ar
     9    4   37 1
    10    5    6 ar
    11    5   38 1
    12    6    7 1
    13    7    8 2
    14    7   39 1
    15    8   12 1
    16    8    9 1
    17    9   10 1
    18    9   40 1
    19    9   41 1
    20   10   11 1
    21   10   42 1
    22   10   43 1
    23   11   12 2
    24   11   19 1
    25   12   13 1
    26   13   18 1
    27   13   14 1
    28   14   15 1
    29   14   44 1
    30   14   45 1
    31   15   16 1
    32   15   46 1
    33   15   47 1
    34   16   17 1
    35   17   18 1
    36   17   48 1
    37   17   49 1
    38   18   50 1
    39   18   51 1
    40   19   20 2
    41   19   52 1
    42   20   21 1
    43   21   22 1
    44   21   53 1
    45   22   27 ar
    46   22   23 ar
    47   23   24 ar
    48   23   29 1
    49   24   25 ar
    50   24   28 1
    51   25   26 ar
    52   26   27 ar
    53   26   54 1
    54   28   55 1
    55   28   56 1
    56   29   30 2
    57   29   31 1
    58   32   33 2
    59   32   34 1
