@<TRIPOS>MOLECULE
ZINC08800536
   62    64     0     0     0
SMALL
USER_CHARGES
1-[(2,4,6-trimethylphenyl)carbamoyl]ethyl 3-[4-[(4-chlorophenyl)methoxy]phenyl]prop-2-enoate
@<TRIPOS>ATOM
      1 C1         13.7024    4.3105    3.1584 C.3       1 <0>        -0.1153
      2 C2         12.6160    3.5130    2.4841 C.ar      1 <0>        -0.0803
      3 C3         11.4117    4.1155    2.1698 C.ar      1 <0>        -0.1150
      4 C4         10.4141    3.3874    1.5517 C.ar      1 <0>        -0.0644
      5 C5         10.6214    2.0487    1.2459 C.ar      1 <0>         0.1279
      6 C6         11.8299    1.4450    1.5680 C.ar      1 <0>        -0.0871
      7 C7         12.8258    2.1803    2.1804 C.ar      1 <0>        -0.1156
      8 C8         12.0568   -0.0090    1.2435 C.3       1 <0>        -0.1154
      9 N1          9.6127    1.3082    0.6197 N.am      1 <0>        -0.6694
     10 C9          8.3675    1.2952    1.1352 C.2       1 <0>         0.5153
     11 O1          8.1413    1.8522    2.1885 O.2       1 <0>        -0.4919
     12 C10         7.2561    0.5884    0.4027 C.3       1 <0>         0.0725
     13 H1          7.5068   -0.4667    0.2930 H         1 <0>         0.1123
     14 C11         7.0769    1.2166   -0.9808 C.3       1 <0>        -0.1688
     15 O2          6.0412    0.7147    1.1443 O.3       1 <0>        -0.3213
     16 C12         5.1467   -0.2890    1.0302 C.2       1 <0>         0.5068
     17 O3          5.3929   -1.2454    0.3199 O.2       1 <0>        -0.5156
     18 C13         3.9198   -0.2292    1.7383 C.2       1 <0>        -0.2218
     19 C14         3.0243   -1.2341    1.6241 C.2       1 <0>         0.0269
     20 C15         1.7526   -1.1721    2.3581 C.ar      1 <0>        -0.1309
     21 C16         0.8229   -2.2122    2.2415 C.ar      1 <0>        -0.0419
     22 C17        -0.3692   -2.1465    2.9266 C.ar      1 <0>        -0.2162
     23 C18        -0.6459   -1.0548    3.7419 C.ar      1 <0>         0.1529
     24 C19         0.2738   -0.0190    3.8608 C.ar      1 <0>        -0.1548
     25 C20         1.4666   -0.0724    3.1759 C.ar      1 <0>        -0.0490
     26 O4         -1.8205   -0.9975    4.4198 O.3       1 <0>        -0.3039
     27 C21        -2.7201   -2.0951    4.2527 C.3       1 <0>         0.0997
     28 C22        -3.9605   -1.8575    5.0750 C.ar      1 <0>        -0.0960
     29 C23        -4.0225   -2.3120    6.3791 C.ar      1 <0>        -0.0811
     30 C24        -5.1576   -2.0895    7.1356 C.ar      1 <0>        -0.1130
     31 C25        -6.2363   -1.4217    6.5838 C.ar      1 <0>        -0.0237
     32 C26        -6.1759   -0.9720    5.2768 C.ar      1 <0>        -0.1131
     33 C27        -5.0380   -1.1902    4.5231 C.ar      1 <0>        -0.0810
     34 Cl1        -7.6649   -1.1475    7.5312 Cl        1 <0>        -0.0633
     35 C28         9.1017    4.0447    1.2101 C.3       1 <0>        -0.1100
     36 H2         13.5905    4.2349    4.2400 H         1 <0>         0.0717
     37 H3         14.6763    3.9180    2.8656 H         1 <0>         0.0670
     38 H4         13.6263    5.3553    2.8574 H         1 <0>         0.0672
     39 H5         11.2512    5.1567    2.4076 H         1 <0>         0.1258
     40 H6         13.7676    1.7126    2.4268 H         1 <0>         0.1261
     41 H7         12.3929   -0.1027    0.2108 H         1 <0>         0.0720
     42 H8         12.8163   -0.4160    1.9111 H         1 <0>         0.0710
     43 H9         11.1254   -0.5601    1.3738 H         1 <0>         0.0650
     44 H10         9.8096    0.8043   -0.1854 H         1 <0>         0.4093
     45 H11         6.2730    0.7054   -1.5105 H         1 <0>         0.0788
     46 H12         6.8262    2.2717   -0.8710 H         1 <0>         0.0750
     47 H13         8.0036    1.1202   -1.5464 H         1 <0>         0.0808
     48 H14         3.7012    0.6199    2.3690 H         1 <0>         0.1428
     49 H15         3.2429   -2.0832    0.9935 H         1 <0>         0.1399
     50 H16         1.0386   -3.0625    1.6116 H         1 <0>         0.1342
     51 H17        -1.0889   -2.9464    2.8341 H         1 <0>         0.1345
     52 H18         0.0521    0.8289    4.4920 H         1 <0>         0.1379
     53 H19         2.1803    0.7327    3.2689 H         1 <0>         0.1394
     54 H20        -2.9929   -2.1845    3.2012 H         1 <0>         0.0774
     55 H21        -2.2365   -3.0147    4.5821 H         1 <0>         0.0774
     56 H22        -3.1820   -2.8372    6.8083 H         1 <0>         0.1354
     57 H23        -5.2042   -2.4408    8.1558 H         1 <0>         0.1383
     58 H24        -7.0175   -0.4503    4.8456 H         1 <0>         0.1382
     59 H25        -4.9906   -0.8389    3.5029 H         1 <0>         0.1354
     60 H26         8.4612    4.0573    2.0919 H         1 <0>         0.0851
     61 H27         9.2830    5.0670    0.8781 H         1 <0>         0.0634
     62 H28         8.6118    3.4853    0.4131 H         1 <0>         0.0561
@<TRIPOS>BOND
     1    1    2 1
     2    1   36 1
     3    1   37 1
     4    1   38 1
     5    2    7 ar
     6    2    3 ar
     7    3    4 ar
     8    3   39 1
     9    4    5 ar
    10    4   35 1
    11    5    6 ar
    12    5    9 1
    13    6    7 ar
    14    6    8 1
    15    7   40 1
    16    8   41 1
    17    8   42 1
    18    8   43 1
    19    9   10 am
    20    9   44 1
    21   10   11 2
    22   10   12 1
    23   12   13 1
    24   12   14 1
    25   12   15 1
    26   14   45 1
    27   14   46 1
    28   14   47 1
    29   15   16 1
    30   16   17 2
    31   16   18 1
    32   18   19 2
    33   18   48 1
    34   19   20 1
    35   19   49 1
    36   20   25 ar
    37   20   21 ar
    38   21   22 ar
    39   21   50 1
    40   22   23 ar
    41   22   51 1
    42   23   24 ar
    43   23   26 1
    44   24   25 ar
    45   24   52 1
    46   25   53 1
    47   26   27 1
    48   27   28 1
    49   27   54 1
    50   27   55 1
    51   28   33 ar
    52   28   29 ar
    53   29   30 ar
    54   29   56 1
    55   30   31 ar
    56   30   57 1
    57   31   32 ar
    58   31   34 1
    59   32   33 ar
    60   32   58 1
    61   33   59 1
    62   35   60 1
    63   35   61 1
    64   35   62 1
