@<TRIPOS>MOLECULE
ZINC39362731
   41    43     0     0     0
SMALL
USER_CHARGES

@<TRIPOS>ATOM
      1 C1          0.4170    0.6708    1.1429 C.ar      1 <0>        -0.0838
      2 C2          1.6035    1.3775    1.1328 C.ar      1 <0>        -0.1381
      3 C3          2.3791    1.4141   -0.0138 C.ar      1 <0>         0.1078
      4 C4          1.9672    0.7425   -1.1526 C.ar      1 <0>        -0.1396
      5 C5          0.7814    0.0344   -1.1471 C.ar      1 <0>        -0.0842
      6 C6          0.0021   -0.0041    0.0020 C.ar      1 <0>         0.1458
      7 N1         -1.1989   -0.7209    0.0101 N.pl3     1 <0>        -0.5792
      8 C7         -1.3530   -2.1818   -0.0932 C.3       1 <0>         0.3786
      9 H1         -0.9548   -2.5423   -1.0416 H         1 <0>         0.0860
     10 N2         -2.8101   -2.3894   -0.0320 N.pl3     1 <0>        -0.6628
     11 N3         -3.3804   -1.1169    0.0952 N.2       1 <0>        -0.2975
     12 C8         -2.4780   -0.1951    0.1230 C.2       1 <0>         0.2634
     13 S1         -2.8280    1.5245    0.2811 S.3       1 <0>         0.0745
     14 C9         -4.6375    1.5962    0.3867 C.3       1 <0>        -0.1529
     15 C10        -5.0761    3.0311    0.5266 C.2       1 <0>         0.5383
     16 O1         -4.2494    3.9181    0.5526 O.2       1 <0>        -0.5237
     17 N4         -6.3871    3.3287    0.6229 N.am      1 <0>        -0.8457
     18 C11        -0.6587   -2.8790    1.0785 C.3       1 <0>        -0.1230
     19 C12        -0.7249   -4.3721    0.8853 C.2       1 <0>         0.2040
     20 N5         -1.8302   -5.0694    1.2906 N.am      1 <0>        -0.6361
     21 C13        -1.8994   -6.4024    1.1221 C.2       1 <0>         0.7012
     22 O2         -2.8910   -7.0024    1.4896 O.2       1 <0>        -0.5349
     23 N6         -0.8864   -7.0812    0.5522 N.am      1 <0>        -0.6587
     24 C14         0.2201   -6.4307    0.1393 C.2       1 <0>         0.5504
     25 O3          1.1371   -7.0441   -0.3765 O.2       1 <0>        -0.5078
     26 C15         0.3039   -5.0274    0.3063 C.2       1 <0>        -0.2831
     27 F1          3.5391    2.1065   -0.0216 F         1 <0>        -0.1338
     28 H2         -0.1855    0.6392    2.0387 H         1 <0>         0.1389
     29 H3          1.9265    1.9024    2.0197 H         1 <0>         0.1441
     30 H4          2.5735    0.7726   -2.0458 H         1 <0>         0.1437
     31 H5          0.4602   -0.4887   -2.0357 H         1 <0>         0.1373
     32 H6         -3.2801   -3.2370   -0.0723 H         1 <0>         0.4435
     33 H7         -5.0714    1.1702   -0.5180 H         1 <0>         0.1258
     34 H8         -4.9737    1.0273    1.2535 H         1 <0>         0.1257
     35 H9         -7.0483    2.6193    0.6021 H         1 <0>         0.4057
     36 H10        -6.6694    4.2524    0.7130 H         1 <0>         0.4102
     37 H11         0.3839   -2.5642    1.1225 H         1 <0>         0.1179
     38 H12        -1.1589   -2.6106    2.0091 H         1 <0>         0.1008
     39 H13        -0.9526   -8.0422    0.4383 H         1 <0>         0.4334
     40 H14         1.1806   -4.4886   -0.0219 H         1 <0>         0.1734
     41 H15        -2.5708   -4.5983    1.7035 H         1 <0>         0.4346
@<TRIPOS>BOND
     1    1    6 ar
     2    1    2 ar
     3    1   28 1
     4    2    3 ar
     5    2   29 1
     6    3    4 ar
     7    3   27 1
     8    4    5 ar
     9    4   30 1
    10    5    6 ar
    11    5   31 1
    12    6    7 1
    13    7   12 1
    14    7    8 1
    15    8    9 1
    16    8   10 1
    17    8   18 1
    18   10   11 1
    19   10   32 1
    20   11   12 2
    21   12   13 1
    22   13   14 1
    23   14   15 1
    24   14   33 1
    25   14   34 1
    26   15   16 2
    27   15   17 am
    28   17   35 1
    29   17   36 1
    30   18   37 1
    31   18   38 1
    32   18   19 1
    33   19   26 2
    34   19   20 1
    35   20   21 am
    36   20   41 1
    37   21   22 2
    38   21   23 am
    39   23   39 1
    40   23   24 am
    41   24   25 2
    42   24   26 1
    43   26   40 1
