@<TRIPOS>MOLECULE
ZINC49139252
   28    29     0     0     0
SMALL
USER_CHARGES

@<TRIPOS>ATOM
      1 C1         -0.0187    1.5258    0.0104 C.3       1 <0>        -0.1473
      2 C2          0.0021   -0.0041    0.0020 C.3       1 <0>        -0.0457
      3 C3          0.7074   -0.4901   -1.2379 C.2       1 <0>         0.0939
      4 C4          1.7966   -1.3648   -1.2682 C.2       1 <0>        -0.2658
      5 C5          2.1418   -1.5567   -2.5712 C.2       1 <0>         0.3014
      6 N1          1.2901   -0.8209   -3.3313 N.pl3     1 <0>        -0.4914
      7 H1          1.2945   -0.7612   -4.2995 H         1 <0>         0.4371
      8 N2          0.4001   -0.1688   -2.4683 N.2       1 <0>        -0.2756
      9 N3          3.1795   -2.3607   -3.0393 N.am      1 <0>        -0.6417
     10 C6          3.9518   -3.0394   -2.1678 C.2       1 <0>         0.5704
     11 O1          3.7432   -2.9503   -0.9738 O.2       1 <0>        -0.4821
     12 C7          5.0545   -3.8937   -2.6652 C.ar      1 <0>        -0.0729
     13 C8          5.3152   -4.0057   -4.0351 C.ar      1 <0>        -0.1415
     14 C9          6.3531   -4.8133   -4.4559 C.ar      1 <0>         0.1242
     15 N4          7.0933   -5.4732   -3.5868 N.ar      1 <0>        -0.4569
     16 C10         6.8822   -5.3962   -2.2872 C.ar      1 <0>         0.1753
     17 C11         5.8671   -4.6058   -1.7787 C.ar      1 <0>        -0.0933
     18 Cl1         7.8958   -6.2933   -1.2001 Cl        1 <0>        -0.0102
     19 H2          1.0039    1.9031    0.0027 H         1 <0>         0.0549
     20 H3         -0.5459    1.8868   -0.8726 H         1 <0>         0.0604
     21 H4         -0.5289    1.8773    0.9072 H         1 <0>         0.0621
     22 H5          0.5293   -0.3651    0.8851 H         1 <0>         0.0858
     23 H6         -1.0205   -0.3814    0.0098 H         1 <0>         0.0828
     24 H7          2.2791   -1.8095   -0.4105 H         1 <0>         0.1743
     25 H8          3.3459   -2.4318   -3.9922 H         1 <0>         0.4131
     26 H9          4.7132   -3.4686   -4.7531 H         1 <0>         0.1472
     27 H10         6.5613   -4.9060   -5.5116 H         1 <0>         0.1777
     28 H11         5.7024   -4.5434   -0.7131 H         1 <0>         0.1639
@<TRIPOS>BOND
     1    1    2 1
     2    1   19 1
     3    1   20 1
     4    1   21 1
     5    2    3 1
     6    2   22 1
     7    2   23 1
     8    3    8 2
     9    3    4 1
    10    4    5 2
    11    4   24 1
    12    5    6 1
    13    5    9 1
    14    6    7 1
    15    6    8 1
    16    9   10 am
    17    9   25 1
    18   10   11 2
    19   10   12 1
    20   12   17 ar
    21   12   13 ar
    22   13   14 ar
    23   13   26 1
    24   14   15 ar
    25   14   27 1
    26   15   16 ar
    27   16   17 ar
    28   16   18 1
    29   17   28 1
