@<TRIPOS>MOLECULE
ZINC49551417
   36    38     0     0     0
SMALL
USER_CHARGES

@<TRIPOS>ATOM
      1 C1          0.0292    1.2147   -0.6874 C.ar      1 <0>        -0.1103
      2 C2          1.2077    1.9319   -0.7530 C.ar      1 <0>        -0.1362
      3 C3          2.3521    1.4421   -0.1463 C.ar      1 <0>         0.0838
      4 C4          2.3176    0.2326    0.5273 C.ar      1 <0>        -0.1366
      5 C5          1.1411   -0.4875    0.5956 C.ar      1 <0>        -0.0886
      6 C6         -0.0077    0.0019   -0.0120 C.ar      1 <0>         0.1349
      7 N1         -1.2010   -0.7262    0.0560 N.am      1 <0>        -0.6630
      8 C7         -1.1834   -2.0649   -0.0990 C.2       1 <0>         0.5833
      9 O1         -0.1220   -2.6570   -0.1544 O.2       1 <0>        -0.5299
     10 C8         -2.4471   -2.8100   -0.2013 C.2       1 <0>        -0.2835
     11 C9         -2.4549   -4.2000   -0.2047 C.2       1 <0>         0.0761
     12 C10        -3.6732   -4.8873   -0.2984 C.2       1 <0>        -0.1955
     13 C11        -4.8328   -4.1953   -0.3818 C.2       1 <0>         0.2037
     14 N2         -4.8257   -2.8317   -0.3885 N.am      1 <0>        -0.6027
     15 H1         -5.6687   -2.3572   -0.4602 H         1 <0>         0.4195
     16 C12        -3.6876   -2.1266   -0.2929 C.2       1 <0>         0.5385
     17 O2         -3.7189   -0.9082   -0.2896 O.2       1 <0>        -0.5468
     18 C13        -6.1785   -4.8718   -0.4605 C.3       1 <0>        -0.0988
     19 C14        -6.0264   -6.3315   -0.8809 C.3       1 <0>        -0.1175
     20 C15        -4.9815   -6.9877    0.0298 C.3       1 <0>        -0.1256
     21 C16        -3.6156   -6.3929   -0.3055 C.3       1 <0>        -0.0646
     22 F1          3.5040    2.1449   -0.2120 F         1 <0>        -0.1399
     23 H2         -0.8641    1.5991   -1.1572 H         1 <0>         0.1368
     24 H3          1.2369    2.8752   -1.2781 H         1 <0>         0.1398
     25 H4          3.2114   -0.1479    0.9991 H         1 <0>         0.1391
     26 H5          1.1147   -1.4309    1.1208 H         1 <0>         0.1440
     27 H6         -2.0408   -0.2674    0.2148 H         1 <0>         0.4249
     28 H7         -1.5268   -4.7479   -0.1360 H         1 <0>         0.1537
     29 H8         -6.6598   -4.8280    0.5165 H         1 <0>         0.1011
     30 H9         -6.7997   -4.3513   -1.1894 H         1 <0>         0.0930
     31 H10        -6.9814   -6.8459   -0.7747 H         1 <0>         0.0817
     32 H11        -5.6941   -6.3826   -1.9178 H         1 <0>         0.0745
     33 H12        -5.2243   -6.7859    1.0731 H         1 <0>         0.0702
     34 H13        -4.9665   -8.0637   -0.1434 H         1 <0>         0.0781
     35 H14        -3.3076   -6.7357   -1.2933 H         1 <0>         0.0808
     36 H15        -2.8873   -6.7277    0.4331 H         1 <0>         0.0818
@<TRIPOS>BOND
     1    1    6 ar
     2    1    2 ar
     3    1   23 1
     4    2    3 ar
     5    2   24 1
     6    3    4 ar
     7    3   22 1
     8    4    5 ar
     9    4   25 1
    10    5    6 ar
    11    5   26 1
    12    6    7 1
    13    7    8 am
    14    7   27 1
    15    8    9 2
    16    8   10 1
    17   10   16 1
    18   10   11 2
    19   11   12 1
    20   11   28 1
    21   12   21 1
    22   12   13 2
    23   13   14 1
    24   13   18 1
    25   14   15 1
    26   14   16 am
    27   16   17 2
    28   18   19 1
    29   18   29 1
    30   18   30 1
    31   19   20 1
    32   19   31 1
    33   19   32 1
    34   20   21 1
    35   20   33 1
    36   20   34 1
    37   21   35 1
    38   21   36 1
