@<TRIPOS>MOLECULE
ZINC36589518
   65    66     0     0     0
SMALL
USER_CHARGES

@<TRIPOS>ATOM
      1 C1          3.6286   -1.4044    5.8610 C.3       1 <0>        -0.1523
      2 C2          3.0891   -2.6246    5.1120 C.3       1 <0>        -0.1136
      3 C3          2.5722   -2.1924    3.7384 C.3       1 <0>        -0.1530
      4 C4          2.0408   -3.3942    3.0007 C.2       1 <0>         0.5242
      5 O1          2.3158   -4.5115    3.3841 O.2       1 <0>        -0.5114
      6 N1          1.2599   -3.2275    1.9149 N.am      1 <0>        -0.5985
      7 C5          0.6978   -4.3945    1.2307 C.3       1 <0>         0.1690
      8 H1         -0.0393   -4.0660    0.4980 H         1 <0>         0.1442
      9 C6          1.8008   -5.1464    0.5313 C.ar      1 <0>        -0.0921
     10 C7          3.1109   -4.9959    0.9460 C.ar      1 <0>        -0.0167
     11 C8          4.1227   -5.6850    0.3043 C.ar      1 <0>        -0.0416
     12 C9          3.8252   -6.5252   -0.7527 C.ar      1 <0>        -0.0378
     13 C10         2.5159   -6.6768   -1.1679 C.ar      1 <0>        -0.1008
     14 C11         1.5018   -5.9915   -0.5222 C.ar      1 <0>        -0.0026
     15 Cl1        -0.1440   -6.1869   -1.0386 Cl        1 <0>        -0.0251
     16 N2          5.5252   -5.5231    0.7486 N.pl3     1 <0>         0.0311
     17 O2          5.7856   -4.7883    1.6726 O.2       1 <0>        -0.1427
     18 O3          6.4104   -6.1258    0.1874 O.3       1 <0>        -0.1480
     19 C12         0.0356   -5.2974    2.2393 C.2       1 <0>         0.5174
     20 O4         -0.0570   -4.9483    3.3971 O.2       1 <0>        -0.4774
     21 N3         -0.4538   -6.4929    1.8548 N.am      1 <0>        -0.7104
     22 C13        -1.0975   -7.3706    2.8353 C.3       1 <0>        -0.3604
     23 S1         -2.8921   -7.1092    2.7945 S.o2      1 <0>         2.4685
     24 O5         -3.5369   -7.9989    3.6956 O.2       1 <0>        -0.9288
     25 O6         -3.1848   -5.7189    2.8153 O.2       1 <0>        -0.9189
     26 C14        -3.3922   -7.6500    1.1938 C.ar      1 <0>        -0.6652
     27 C15        -3.4123   -6.7581    0.1379 C.ar      1 <0>        -0.0215
     28 C16        -3.8046   -7.1824   -1.1179 C.ar      1 <0>        -0.1428
     29 C17        -4.1765   -8.4987   -1.3178 C.ar      1 <0>        -0.0255
     30 C18        -4.1555   -9.3908   -0.2621 C.ar      1 <0>        -0.1382
     31 C19        -3.7591   -8.9676    0.9927 C.ar      1 <0>        -0.0175
     32 C20        -4.6051   -8.9610   -2.6866 C.3       1 <0>        -0.1273
     33 C21         0.9733   -1.8791    1.4189 C.3       1 <0>         0.1615
     34 C22         2.2704   -1.0696    1.3638 C.3       1 <0>        -0.1789
     35 C23         0.3686   -1.9695    0.0164 C.3       1 <0>        -0.1639
     36 C24        -0.0183   -1.1901    2.3585 C.3       1 <0>        -0.1714
     37 H2          2.8303   -0.6731    5.9869 H         1 <0>         0.0537
     38 H3          3.9969   -1.7124    6.8396 H         1 <0>         0.0589
     39 H4          4.4431   -0.9586    5.2901 H         1 <0>         0.0558
     40 H5          3.8875   -3.3560    4.9862 H         1 <0>         0.0739
     41 H6          2.2746   -3.0705    5.6829 H         1 <0>         0.0674
     42 H7          1.7739   -1.4610    3.8643 H         1 <0>         0.1030
     43 H8          3.3867   -1.7465    3.1675 H         1 <0>         0.1069
     44 H9          3.3439   -4.3395    1.7714 H         1 <0>         0.1765
     45 H10         4.6163   -7.0628   -1.2542 H         1 <0>         0.1687
     46 H11         2.2837   -7.3328   -1.9938 H         1 <0>         0.1660
     47 H12        -0.3798   -6.7721    0.9288 H         1 <0>         0.4010
     48 H13        -0.8762   -8.4100    2.5930 H         1 <0>         0.1457
     49 H14        -0.7195   -7.1413    3.8316 H         1 <0>         0.1591
     50 H15        -3.1218   -5.7297    0.2941 H         1 <0>         0.1366
     51 H16        -3.8210   -6.4854   -1.9427 H         1 <0>         0.1324
     52 H17        -4.4464  -10.4191   -0.4183 H         1 <0>         0.1355
     53 H18        -3.7392   -9.6654    1.8167 H         1 <0>         0.1435
     54 H19        -3.7348   -9.3135   -3.2401 H         1 <0>         0.0807
     55 H20        -5.3256   -9.7728   -2.5868 H         1 <0>         0.0749
     56 H21        -5.0650   -8.1309   -3.2229 H         1 <0>         0.0739
     57 H22         3.0930   -1.7209    1.0683 H         1 <0>         0.0632
     58 H23         2.1655   -0.2642    0.6368 H         1 <0>         0.0772
     59 H24         2.4769   -0.6468    2.3470 H         1 <0>         0.0831
     60 H25        -0.6094   -2.4476    0.0725 H         1 <0>         0.0668
     61 H26         0.2597   -0.9671   -0.3976 H         1 <0>         0.0847
     62 H27         1.0245   -2.5582   -0.6249 H         1 <0>         0.0644
     63 H28         0.4870   -0.9206    3.2858 H         1 <0>         0.0704
     64 H29        -0.4059   -0.2902    1.8811 H         1 <0>         0.0754
     65 H30        -0.8426   -1.8688    2.5778 H         1 <0>         0.0693
@<TRIPOS>BOND
     1    1    2 1
     2    1   37 1
     3    1   38 1
     4    1   39 1
     5    2    3 1
     6    2   40 1
     7    2   41 1
     8    3    4 1
     9    3   42 1
    10    3   43 1
    11    4    5 2
    12    4    6 am
    13    6    7 1
    14    6   33 1
    15    7    8 1
    16    7    9 1
    17    7   19 1
    18    9   14 ar
    19    9   10 ar
    20   10   11 ar
    21   10   44 1
    22   11   12 ar
    23   11   16 1
    24   12   13 ar
    25   12   45 1
    26   13   14 ar
    27   13   46 1
    28   14   15 1
    29   16   17 2
    30   16   18 1
    31   19   20 2
    32   19   21 am
    33   21   22 1
    34   21   47 1
    35   22   23 1
    36   22   48 1
    37   22   49 1
    38   23   24 2
    39   23   25 2
    40   23   26 1
    41   26   31 ar
    42   26   27 ar
    43   27   28 ar
    44   27   50 1
    45   28   29 ar
    46   28   51 1
    47   29   30 ar
    48   29   32 1
    49   30   31 ar
    50   30   52 1
    51   31   53 1
    52   32   54 1
    53   32   55 1
    54   32   56 1
    55   33   34 1
    56   33   35 1
    57   33   36 1
    58   34   57 1
    59   34   58 1
    60   34   59 1
    61   35   60 1
    62   35   61 1
    63   35   62 1
    64   36   63 1
    65   36   64 1
    66   36   65 1
