@<TRIPOS>MOLECULE
ZINC16893467
   48    51     0     0     0
SMALL
USER_CHARGES
(2R)-N-(4-hydroxyphenyl)-2-[(7R)-7-methyl-4-oxo-5,6,7,8-tetrahydrobenzothiopheno[2,3-d]pyrimidin-3-yl]propanamide
@<TRIPOS>ATOM
      1 C1          6.9032   -4.5310    3.9589 C.3       1 <0>        -0.1471
      2 C2          5.5362   -3.9575    3.5800 C.3       1 <0>        -0.0875
      3 H1          4.8274   -4.7716    3.4288 H         1 <0>         0.0768
      4 C3          5.6617   -3.1396    2.2912 C.3       1 <0>        -0.1174
      5 C4          4.2710   -2.7757    1.7698 C.3       1 <0>        -0.0584
      6 C5          3.4813   -2.1133    2.8953 C.2       1 <0>        -0.0507
      7 C6          3.8609   -2.2591    4.1823 C.2       1 <0>        -0.1685
      8 S1          2.6751   -1.3322    5.1187 S.3       1 <0>         0.1488
      9 C7          1.6711   -0.7512    3.7753 C.2       1 <0>         0.1050
     10 C8          2.2932   -1.2990    2.6425 C.2       1 <0>        -0.2442
     11 C9          1.6796   -0.9861    1.3853 C.2       1 <0>         0.5578
     12 O1          2.1458   -1.4158    0.3442 O.2       1 <0>        -0.5217
     13 N1          0.5797   -0.2102    1.3739 N.am      1 <0>        -0.5159
     14 C10         0.0497    0.2809    2.5235 C.2       1 <0>         0.4072
     15 N2          0.5837    0.0095    3.6844 N.2       1 <0>        -0.4873
     16 C11        -0.0550    0.1159    0.0944 C.3       1 <0>         0.0978
     17 H2          0.5006   -0.3541   -0.7170 H         1 <0>         0.1502
     18 C12        -0.0578    1.6334   -0.1013 C.3       1 <0>        -0.1642
     19 C13        -1.4733   -0.3934    0.0930 C.2       1 <0>         0.5064
     20 O2         -1.9109   -0.9719    1.0652 O.2       1 <0>        -0.5031
     21 N3         -2.2556   -0.2060   -0.9884 N.am      1 <0>        -0.6623
     22 C14        -3.5355   -0.7741   -1.0341 C.ar      1 <0>         0.1317
     23 C15        -3.7743   -1.9981   -0.4237 C.ar      1 <0>        -0.1015
     24 C16        -5.0372   -2.5550   -0.4646 C.ar      1 <0>        -0.1243
     25 C17        -6.0645   -1.8973   -1.1252 C.ar      1 <0>         0.0957
     26 C18        -5.8254   -0.6768   -1.7398 C.ar      1 <0>        -0.1251
     27 C19        -4.5643   -0.1161   -1.6947 C.ar      1 <0>        -0.1231
     28 O3         -7.3065   -2.4488   -1.1700 O.3       1 <0>        -0.4980
     29 C20         5.0318   -3.0369    4.7005 C.3       1 <0>        -0.0320
     30 H3          7.6089   -3.7151    4.1149 H         1 <0>         0.0575
     31 H4          6.8116   -5.1125    4.8762 H         1 <0>         0.0580
     32 H5          7.2628   -5.1738    3.1555 H         1 <0>         0.0596
     33 H6          6.1882   -3.7273    1.5392 H         1 <0>         0.0720
     34 H7          6.2225   -2.2273    2.4943 H         1 <0>         0.0663
     35 H8          3.7551   -3.6790    1.4440 H         1 <0>         0.0781
     36 H9          4.3643   -2.0839    0.9326 H         1 <0>         0.0858
     37 H10        -0.8313    0.9040    2.4776 H         1 <0>         0.2094
     38 H11         0.9681    2.0017   -0.1003 H         1 <0>         0.0856
     39 H12        -0.5300    1.8760   -1.0532 H         1 <0>         0.0894
     40 H13        -0.6134    2.1034    0.7102 H         1 <0>         0.0754
     41 H14        -1.9324    0.3222   -1.7351 H         1 <0>         0.4150
     42 H15        -2.9734   -2.5126    0.0865 H         1 <0>         0.1369
     43 H16        -5.2243   -3.5048    0.0142 H         1 <0>         0.1339
     44 H17        -6.6256   -0.1652   -2.2539 H         1 <0>         0.1355
     45 H18        -4.3783    0.8342   -2.1729 H         1 <0>         0.1330
     46 H19        -7.4530   -3.0269   -1.9312 H         1 <0>         0.3918
     47 H20         4.7241   -3.6363    5.5574 H         1 <0>         0.0844
     48 H21         5.8257   -2.3517    4.9980 H         1 <0>         0.0870
@<TRIPOS>BOND
     1    1    2 1
     2    1   30 1
     3    1   31 1
     4    1   32 1
     5    2    3 1
     6    2   29 1
     7    2    4 1
     8    4    5 1
     9    4   33 1
    10    4   34 1
    11    5    6 1
    12    5   35 1
    13    5   36 1
    14    6   10 1
    15    6    7 2
    16    7    8 1
    17    7   29 1
    18    8    9 1
    19    9   15 1
    20    9   10 2
    21   10   11 1
    22   11   12 2
    23   11   13 am
    24   13   14 1
    25   13   16 1
    26   14   15 2
    27   14   37 1
    28   16   17 1
    29   16   18 1
    30   16   19 1
    31   18   38 1
    32   18   39 1
    33   18   40 1
    34   19   20 2
    35   19   21 am
    36   21   22 1
    37   21   41 1
    38   22   27 ar
    39   22   23 ar
    40   23   24 ar
    41   23   42 1
    42   24   25 ar
    43   24   43 1
    44   25   26 ar
    45   25   28 1
    46   26   27 ar
    47   26   44 1
    48   27   45 1
    49   28   46 1
    50   29   47 1
    51   29   48 1
