@<TRIPOS>MOLECULE
ZINC40217009
   35    36     0     0     0
SMALL
USER_CHARGES

@<TRIPOS>ATOM
      1 C1         -0.0163    1.3513    0.0095 C.2       1 <0>        -0.1692
      2 C2          1.1833    2.0380    0.0017 C.2       1 <0>        -0.0021
      3 C3          2.3426    1.3358   -0.0131 C.2       1 <0>        -0.7643
      4 S1          1.7535   -0.3495   -0.0166 S.3       1 <0>         0.2038
      5 C4          0.0021   -0.0041    0.0020 C.2       1 <0>        -0.1276
      6 C5         -1.1555   -0.9689    0.0083 C.3       1 <0>         0.1974
      7 N1         -1.5443   -1.2742   -1.3708 N.pl3     1 <0>        -1.1271
      8 S2         -2.5251   -2.5705   -1.6869 S.o2      1 <0>         2.7859
      9 O1         -2.7391   -2.5848   -3.0916 O.2       1 <0>        -0.9636
     10 O2         -1.9719   -3.6780   -0.9893 O.2       1 <0>        -0.9654
     11 N2         -3.9929   -2.2559   -0.9877 N.pl3     1 <0>        -1.0083
     12 C6         -4.2736   -2.6603    0.3990 C.3       1 <0>         0.0821
     13 C7         -4.8289   -1.4469    1.1535 C.3       1 <0>         0.0469
     14 O3         -5.9247   -0.8967    0.4185 O.3       1 <0>        -0.3735
     15 C8         -5.5721   -0.4034   -0.8762 C.3       1 <0>         0.0475
     16 C9         -5.0530   -1.5584   -1.7328 C.3       1 <0>         0.0861
     17 S3          4.0007    1.9316   -0.0263 S.o2      1 <0>         2.7381
     18 O4          4.7986    0.8998   -0.5901 O.2       1 <0>        -0.9524
     19 O5          3.9565    3.2437   -0.5701 O.2       1 <0>        -0.9521
     20 N3          4.4769    2.0892    1.5520 N.pl3     1 <0>        -1.2476
     21 H1         -0.9542    1.8866    0.0258 H         1 <0>         0.1493
     22 H2          1.1967    3.1179    0.0070 H         1 <0>         0.1544
     23 H3         -0.8598   -1.8879    0.5143 H         1 <0>         0.1017
     24 H4         -1.9993   -0.5207    0.5329 H         1 <0>         0.0942
     25 H5         -1.2273   -0.7170   -2.0987 H         1 <0>         0.4229
     26 H6         -5.0093   -3.4646    0.4051 H         1 <0>         0.0873
     27 H7         -3.3540   -2.9997    0.8757 H         1 <0>         0.0987
     28 H8         -5.1719   -1.7575    2.1404 H         1 <0>         0.1099
     29 H9         -4.0470   -0.6948    1.2590 H         1 <0>         0.0546
     30 H10        -6.4498    0.0367   -1.3496 H         1 <0>         0.1095
     31 H11        -4.7930    0.3525   -0.7780 H         1 <0>         0.0559
     32 H12        -4.6492   -1.1683   -2.6671 H         1 <0>         0.0997
     33 H13        -5.8685   -2.2498   -1.9449 H         1 <0>         0.0855
     34 H14         3.8636    1.8627    2.2685 H         1 <0>         0.4179
     35 H15         5.3691    2.4080    1.7598 H         1 <0>         0.4242
@<TRIPOS>BOND
     1    1    5 2
     2    1    2 1
     3    1   21 1
     4    2    3 2
     5    2   22 1
     6    3    4 1
     7    3   17 1
     8    4    5 1
     9    5    6 1
    10    6    7 1
    11    6   23 1
    12    6   24 1
    13    7    8 1
    14    7   25 1
    15    8    9 2
    16    8   10 2
    17    8   11 1
    18   11   16 1
    19   11   12 1
    20   12   13 1
    21   12   26 1
    22   12   27 1
    23   13   14 1
    24   13   28 1
    25   13   29 1
    26   14   15 1
    27   15   16 1
    28   15   30 1
    29   15   31 1
    30   16   32 1
    31   16   33 1
    32   17   18 2
    33   17   19 2
    34   17   20 1
    35   20   34 1
    36   20   35 1
