@<TRIPOS>MOLECULE
ZINC08964546
   59    63     0     0     0
SMALL
USER_CHARGES
(5Z)-1-(3-chlorophenyl)-5-[[[(5S)-4-methoxy-6-methyl-7,8-dihydro-5H-[1,3]dioxolo[4,5-g]isoquinolin-5-yl]methylamino]methylene]hexahydropyrimidine-2,4,6-trione
@<TRIPOS>ATOM
      1 C1          0.8588   -4.5806    1.3484 C.3       1 <0>        -0.0431
      2 C2          2.1652   -6.6184    1.4663 C.3       1 <0>         0.0000
      3 C3          2.0322   -8.1033    1.8049 C.3       1 <0>        -0.1019
      4 C4          1.0962   -8.7718    0.8304 C.ar      1 <0>        -0.0546
      5 C5          1.1137  -10.1557    0.7430 C.ar      1 <0>        -0.0956
      6 C6          0.2677  -10.8158   -0.1320 C.ar      1 <0>         0.0759
      7 C7         -0.6066  -10.0838   -0.9289 C.ar      1 <0>         0.0278
      8 C8         -0.6210   -8.6993   -0.8398 C.ar      1 <0>         0.1409
      9 C9          0.2331   -8.0424    0.0408 C.ar      1 <0>        -0.1181
     10 C10         0.1826   -6.5379    0.0981 C.3       1 <0>         0.1155
     11 H1          0.7078   -6.1273   -0.7643 H         1 <0>         0.1465
     12 C11        -1.2770   -6.0801    0.0652 C.3       1 <0>        -0.0216
     13 N1         -1.9846   -6.6205    1.2285 N.2       1 <0>        -0.5056
     14 C12        -3.2636   -6.2656    1.4642 C.2       1 <0>         0.1785
     15 C13        -3.9315   -6.7756    2.5621 C.3       1 <0>        -0.1466
     16 C14        -5.3701   -6.5313    2.7690 C.2       1 <0>         0.5545
     17 O1         -6.0122   -5.8704    1.9745 O.2       1 <0>        -0.4612
     18 N2         -5.9558   -7.0607    3.8628 N.am      1 <0>        -0.6564
     19 C15        -5.2615   -7.7956    4.7429 C.2       1 <0>         0.7032
     20 O2         -5.8498   -8.2486    5.7051 O.2       1 <0>        -0.4854
     21 N3         -3.9517   -8.0528    4.6209 N.am      1 <0>        -0.5137
     22 C16        -3.2361   -7.5877    3.5762 C.2       1 <0>         0.5584
     23 O3         -2.0487   -7.8325    3.4739 O.2       1 <0>        -0.4287
     24 C17        -3.3122   -8.8274    5.5981 C.ar      1 <0>         0.1268
     25 C18        -2.8119  -10.0816    5.2741 C.ar      1 <0>        -0.0843
     26 C19        -2.1824  -10.8434    6.2389 C.ar      1 <0>        -0.0938
     27 C20        -2.0498  -10.3587    7.5271 C.ar      1 <0>        -0.0886
     28 C21        -2.5470   -9.1094    7.8536 C.ar      1 <0>        -0.0271
     29 C22        -3.1781   -8.3425    6.8917 C.ar      1 <0>        -0.0820
     30 Cl1        -2.3790   -8.5047    9.4722 Cl        1 <0>        -0.0483
     31 O4         -1.4741   -7.9805   -1.6176 O.3       1 <0>        -0.3224
     32 C23        -0.9938   -7.5700   -2.8994 C.3       1 <0>         0.0220
     33 O5         -1.3284  -10.9525   -1.6973 O.3       1 <0>        -0.2922
     34 C24        -0.6010  -12.1946   -1.6589 C.3       1 <0>         0.2093
     35 O6          0.0956  -12.1433   -0.3998 O.3       1 <0>        -0.2962
     36 H2         -0.1571   -4.1878    1.3905 H         1 <0>         0.1169
     37 H3          1.4141   -4.2463    2.2248 H         1 <0>         0.1268
     38 H4          1.3514   -4.2185    0.4462 H         1 <0>         0.1248
     39 H5          2.6980   -6.1063    2.2674 H         1 <0>         0.1393
     40 H6          2.7095   -6.5039    0.5289 H         1 <0>         0.1334
     41 H7          1.6387   -8.2101    2.8158 H         1 <0>         0.1111
     42 H8          3.0124   -8.5767    1.7479 H         1 <0>         0.1270
     43 H9          1.7933  -10.7232    1.3616 H         1 <0>         0.1505
     44 H10        -1.7503   -6.4409   -0.8480 H         1 <0>         0.1554
     45 H11        -1.3168   -4.9911    0.0892 H         1 <0>         0.0886
     46 H12        -3.8859   -5.8104    2.8194 H         1 <0>         0.1665
     47 H13        -3.7665   -5.5829    0.7954 H         1 <0>         0.1505
     48 H14        -6.9021   -6.9096    4.0137 H         1 <0>         0.4499
     49 H15        -2.9189  -10.4630    4.2693 H         1 <0>         0.1337
     50 H16        -1.7936  -11.8190    5.9869 H         1 <0>         0.1459
     51 H17        -1.5574  -10.9565    8.2799 H         1 <0>         0.1451
     52 H18        -3.5665   -7.3676    7.1466 H         1 <0>         0.1380
     53 H19        -0.1124   -6.9414   -2.7729 H         1 <0>         0.0495
     54 H20        -0.7315   -8.4493   -3.4877 H         1 <0>         0.0591
     55 H21        -1.7711   -7.0064   -3.4153 H         1 <0>         0.1085
     56 H22         0.1064  -12.2501   -2.4861 H         1 <0>         0.0952
     57 H23        -1.2852  -13.0428   -1.6838 H         1 <0>         0.1441
     58 N4          0.8034   -6.0601    1.3448 N.4       1 <0>        -0.3936
     59 H24         0.2393   -6.3752    2.1427 H         1 <0>         0.4421
@<TRIPOS>BOND
     1    1   36 1
     2    1   37 1
     3    1   38 1
     4    1   58 1
     5    2    3 1
     6    2   39 1
     7    2   40 1
     8    2   58 1
     9    3    4 1
    10    3   41 1
    11    3   42 1
    12    4    9 ar
    13    4    5 ar
    14    5    6 ar
    15    5   43 1
    16    6   35 1
    17    6    7 ar
    18    7    8 ar
    19    7   33 1
    20    8    9 ar
    21    8   31 1
    22    9   10 1
    23   10   11 1
    24   10   12 1
    25   10   58 1
    26   12   44 1
    27   12   45 1
    28   12   13 1
    29   13   14 2
    30   14   47 1
    31   14   15 1
    32   15   22 1
    33   15   16 1
    34   15   46 1
    35   16   17 2
    36   16   18 am
    37   18   19 am
    38   18   48 1
    39   19   20 2
    40   19   21 am
    41   21   22 am
    42   21   24 1
    43   22   23 2
    44   24   29 ar
    45   24   25 ar
    46   25   26 ar
    47   25   49 1
    48   26   27 ar
    49   26   50 1
    50   27   28 ar
    51   27   51 1
    52   28   29 ar
    53   28   30 1
    54   29   52 1
    55   31   32 1
    56   32   53 1
    57   32   54 1
    58   32   55 1
    59   33   34 1
    60   34   35 1
    61   34   56 1
    62   34   57 1
    63   58   59 1
