@<TRIPOS>MOLECULE
ZINC25510001
   35    36     0     0     0
SMALL
USER_CHARGES
N-[5-[(4-chloro-3-nitro-phenyl)sulfonylamino]-2-fluoro-phenyl]acetamide
@<TRIPOS>ATOM
      1 C1          1.8806    7.0784   -3.2379 C.3       1 <0>        -0.1689
      2 C2          1.8270    5.9549   -2.2350 C.2       1 <0>         0.5035
      3 O1          0.7822    5.6864   -1.6804 O.2       1 <0>        -0.5198
      4 N1          2.9399    5.2485   -1.9543 N.am      1 <0>        -0.6792
      5 C3          2.8673    4.1340   -1.1095 C.ar      1 <0>         0.1319
      6 C4          1.6700    3.4483   -0.9657 C.ar      1 <0>        -0.1430
      7 C5          1.6019    2.3440   -0.1281 C.ar      1 <0>         0.2273
      8 C6          2.7307    1.9308    0.5684 C.ar      1 <0>        -0.1999
      9 C7          3.9239    2.6118    0.4200 C.ar      1 <0>        -0.1059
     10 C8          3.9956    3.7129   -0.4140 C.ar      1 <0>        -0.0055
     11 F1          5.1624    4.3794   -0.5534 F         1 <0>        -0.1571
     12 N2          0.3965    1.6512    0.0193 N.2       1 <0>        -1.0436
     13 S1          0.3766   -0.0026   -0.0635 S.o2      1 <0>         2.5738
     14 O2          1.4260   -0.4639    0.7763 O.2       1 <0>        -1.0254
     15 O3         -0.9751   -0.4021    0.1171 O.2       1 <0>        -0.9836
     16 C9          0.8173   -0.4472   -1.7105 C.ar      1 <0>        -0.6502
     17 C10        -0.1514   -0.4956   -2.6959 C.ar      1 <0>         0.0350
     18 C11         0.1945   -0.8396   -3.9889 C.ar      1 <0>        -0.1358
     19 C12         1.5087   -1.1457   -4.2950 C.ar      1 <0>         0.0412
     20 C13         2.4765   -1.1022   -3.3076 C.ar      1 <0>        -0.0662
     21 C14         2.1302   -0.7529   -2.0157 C.ar      1 <0>         0.0463
     22 N3          3.8825   -1.4290   -3.6344 N.pl3     1 <0>         0.0321
     23 O4          4.7347   -1.3903   -2.7649 O.2       1 <0>        -0.1588
     24 O5          4.1875   -1.7368   -4.7727 O.3       1 <0>        -0.1482
     25 Cl1         1.9429   -1.5837   -5.9178 Cl        1 <0>        -0.0134
     26 H1          2.9038    7.1705   -3.6310 H         1 <0>         0.0755
     27 H2          1.5893    8.0200   -2.7495 H         1 <0>         0.0949
     28 H3          1.1878    6.8648   -4.0652 H         1 <0>         0.0955
     29 H4          3.9052    5.5474   -2.3888 H         1 <0>         0.4296
     30 H5          0.7923    3.7735   -1.5045 H         1 <0>         0.1472
     31 H6          2.6766    1.0739    1.2234 H         1 <0>         0.1518
     32 H7          4.8010    2.2864    0.9596 H         1 <0>         0.1251
     33 H8         -1.1779   -0.2610   -2.4558 H         1 <0>         0.1633
     34 H9         -0.5616   -0.8737   -4.7593 H         1 <0>         0.1586
     35 H10         2.8857   -0.7192   -1.2446 H         1 <0>         0.1720
@<TRIPOS>BOND
     1    1    2 1
     2    1   26 1
     3    1   27 1
     4    1   28 1
     5    2    3 2
     6    2    4 am
     7    4    5 1
     8    4   29 1
     9    5   10 ar
    10    5    6 ar
    11    6    7 ar
    12    6   30 1
    13    7    8 ar
    14    7   12 1
    15    8    9 ar
    16    8   31 1
    17    9   10 ar
    18    9   32 1
    19   10   11 1
    20   12   13 1
    21   13   14 2
    22   13   15 2
    23   13   16 1
    24   16   21 ar
    25   16   17 ar
    26   17   18 ar
    27   17   33 1
    28   18   19 ar
    29   18   34 1
    30   19   20 ar
    31   19   25 1
    32   20   21 ar
    33   20   22 1
    34   21   35 1
    35   22   23 2
    36   22   24 1
