@<TRIPOS>MOLECULE
ZINC33222663
   39    41     0     0     0
SMALL
USER_CHARGES

@<TRIPOS>ATOM
      1 C1         -0.0167    1.3837    0.0096 C.ar      1 <0>        -0.1320
      2 C2          1.1517    2.0922    0.0023 C.ar      1 <0>        -0.0375
      3 C3          2.3729    1.4142   -0.0130 C.ar      1 <0>        -0.1409
      4 C4          3.7731    1.8363   -0.0240 C.2       1 <0>        -0.0865
      5 C5          4.5098    0.6955   -0.0372 C.2       1 <0>        -0.0268
      6 O1          3.6902   -0.3764   -0.0351 O.3       1 <0>        -0.1754
      7 C6          2.3987    0.0071   -0.0207 C.ar      1 <0>         0.0989
      8 C7          1.1969   -0.6926   -0.0134 C.ar      1 <0>        -0.0906
      9 C8          0.0021   -0.0041    0.0020 C.ar      1 <0>        -0.0444
     10 Br1         1.2011   -2.5836   -0.0241 Br        1 <0>        -0.0272
     11 C9          5.9784    0.6373   -0.0515 C.2       1 <0>         0.6064
     12 O2          6.6280    1.6659   -0.0522 O.2       1 <0>        -0.5098
     13 N1          6.6054   -0.5557   -0.0639 N.am      1 <0>        -0.5104
     14 N2          8.0052   -0.6112   -0.0775 N.am      1 <0>        -0.5203
     15 C10         8.6322   -1.8042   -0.0899 C.2       1 <0>         0.5141
     16 O3          7.9847   -2.8296   -0.0893 O.2       1 <0>        -0.5274
     17 C11        10.1380   -1.8639   -0.1046 C.3       1 <0>        -0.1173
     18 C12        10.5903   -3.3255   -0.1168 C.3       1 <0>        -0.0820
     19 H1         10.1193   -3.8496   -0.9483 H         1 <0>         0.1091
     20 C13        10.2021   -4.0003    1.2093 C.3       1 <0>        -0.1292
     21 C14        10.9256   -5.3623    1.3399 C.3       1 <0>        -0.5750
     22 S1         12.4567   -5.1024    0.3545 S.o2      1 <0>         2.3694
     23 O4         12.4548   -5.9992   -0.7477 O.2       1 <0>        -0.9346
     24 O5         13.5731   -5.0768    1.2332 O.2       1 <0>        -0.9379
     25 C15        12.1375   -3.3954   -0.2606 C.3       1 <0>        -0.5780
     26 H2         -0.9613    1.9071    0.0260 H         1 <0>         0.1458
     27 H3          1.1311    3.1720    0.0079 H         1 <0>         0.1424
     28 H4          4.1457    2.8500   -0.0221 H         1 <0>         0.1792
     29 H5         -0.9293   -0.5508    0.0083 H         1 <0>         0.1503
     30 H6          6.0875   -1.3758   -0.0634 H         1 <0>         0.4405
     31 H7          8.5232    0.2089   -0.0781 H         1 <0>         0.4357
     32 H8         10.5129   -1.3601   -0.9955 H         1 <0>         0.1144
     33 H9         10.5299   -1.3697    0.7843 H         1 <0>         0.1118
     34 H10        10.4896   -3.3566    2.0406 H         1 <0>         0.0844
     35 H11         9.1241   -4.1596    1.2323 H         1 <0>         0.1118
     36 H12        11.1676   -5.5731    2.3816 H         1 <0>         0.1413
     37 H13        10.3222   -6.1630    0.9124 H         1 <0>         0.1399
     38 H14        12.4419   -3.2884   -1.3017 H         1 <0>         0.1448
     39 H15        12.6259   -2.6516    0.3691 H         1 <0>         0.1430
@<TRIPOS>BOND
     1    1    9 ar
     2    1    2 ar
     3    1   26 1
     4    2    3 ar
     5    2   27 1
     6    3    7 ar
     7    3    4 1
     8    4    5 2
     9    4   28 1
    10    5    6 1
    11    5   11 1
    12    6    7 1
    13    7    8 ar
    14    8    9 ar
    15    8   10 1
    16    9   29 1
    17   11   12 2
    18   11   13 am
    19   13   14 1
    20   13   30 1
    21   14   15 am
    22   14   31 1
    23   15   16 2
    24   15   17 1
    25   17   18 1
    26   17   32 1
    27   17   33 1
    28   18   19 1
    29   18   25 1
    30   18   20 1
    31   20   21 1
    32   20   34 1
    33   20   35 1
    34   21   22 1
    35   21   36 1
    36   21   37 1
    37   22   23 2
    38   22   24 2
    39   22   25 1
    40   25   38 1
    41   25   39 1
