@<TRIPOS>MOLECULE
ZINC16590071
   60    61     0     0     0
SMALL
USER_CHARGES
methyl 4,5-dimethyl-2-[[2-[[2-(o-tolylamino)-2-oxo-ethyl]-propyl-amino]acetyl]amino]thiophene-3-carboxylate
@<TRIPOS>ATOM
      1 C1          3.6972    7.5611    3.8786 C.3       1 <0>        -0.1538
      2 C2          2.3867    6.8509    4.2235 C.3       1 <0>        -0.1497
      3 C3          2.5280    6.1480    5.5752 C.3       1 <0>        -0.0127
      4 C4          1.2014    5.0585    7.2827 C.3       1 <0>        -0.0315
      5 C5          0.9930    6.3337    8.0583 C.2       1 <0>         0.5036
      6 O1          0.9431    7.3964    7.4758 O.2       1 <0>        -0.5065
      7 N1          0.8622    6.2932    9.3990 N.am      1 <0>        -0.6391
      8 C6          0.7871    7.4835   10.1309 C.ar      1 <0>         0.1204
      9 C7          1.3401    8.6507    9.6200 C.ar      1 <0>        -0.1204
     10 C8          1.2600    9.8247   10.3426 C.ar      1 <0>        -0.1048
     11 C9          0.6389    9.8370   11.5782 C.ar      1 <0>        -0.1151
     12 C10         0.0921    8.6756   12.0919 C.ar      1 <0>        -0.0983
     13 C11         0.1646    7.4990   11.3719 C.ar      1 <0>        -0.1008
     14 C12        -0.4308    6.2334   11.9330 C.3       1 <0>        -0.1213
     15 C13         1.2798    4.1428    5.0426 C.3       1 <0>        -0.0226
     16 C14        -0.1328    3.6218    4.9793 C.2       1 <0>         0.4934
     17 O2         -1.0076    4.1614    5.6230 O.2       1 <0>        -0.4917
     18 N2         -0.4241    2.5561    4.2072 N.am      1 <0>        -0.5925
     19 C15        -1.7233    2.0769    4.1490 C.2       1 <0>         0.0369
     20 C16        -2.2154    1.0005    3.4182 C.2       1 <0>        -0.1663
     21 C17        -3.6250    0.7169    3.5507 C.2       1 <0>        -0.0777
     22 C18        -4.3391    1.5177    4.3614 C.2       1 <0>        -0.1736
     23 S1         -3.1280    2.6745    4.9664 S.3       1 <0>         0.2407
     24 C19        -5.8105    1.4524    4.6804 C.3       1 <0>        -0.0747
     25 C20        -4.2687   -0.4277    2.8114 C.3       1 <0>        -0.1066
     26 C21        -1.3458    0.1915    2.5617 C.2       1 <0>         0.5228
     27 O3         -1.1896    0.4947    1.3941 O.2       1 <0>        -0.4844
     28 O4         -0.7181   -0.8900    3.0675 O.3       1 <0>        -0.3503
     29 C22         0.1281   -1.6450    2.1608 C.3       1 <0>         0.0300
     30 H1          3.9250    8.2978    4.6490 H         1 <0>         0.0693
     31 H2          4.5037    6.8299    3.8253 H         1 <0>         0.0665
     32 H3          3.5965    8.0619    2.9156 H         1 <0>         0.0787
     33 H4          2.1589    6.1143    3.4531 H         1 <0>         0.0806
     34 H5          1.5802    7.5822    4.2768 H         1 <0>         0.0929
     35 H6          2.6680    6.8925    6.3589 H         1 <0>         0.1452
     36 H7          3.3898    5.4811    5.5496 H         1 <0>         0.1357
     37 H8          0.3541    4.3922    7.4446 H         1 <0>         0.1654
     38 H9          2.1160    4.5722    7.6219 H         1 <0>         0.1669
     39 H10         0.8202    5.4390    9.8567 H         1 <0>         0.4192
     40 H11         1.8292    8.6408    8.6571 H         1 <0>         0.1416
     41 H12         1.6869   10.7334    9.9443 H         1 <0>         0.1307
     42 H13         0.5812   10.7556   12.1432 H         1 <0>         0.1308
     43 H14        -0.3920    8.6884   13.0573 H         1 <0>         0.1333
     44 H15         0.3216    5.7073   12.5205 H         1 <0>         0.0770
     45 H16        -1.2799    6.4825   12.5695 H         1 <0>         0.0798
     46 H17        -0.7648    5.5952   11.1150 H         1 <0>         0.0605
     47 H18         1.9246    3.3903    5.4964 H         1 <0>         0.1751
     48 H19         1.6315    4.3626    4.0346 H         1 <0>         0.1722
     49 H20         0.2756    2.1245    3.6924 H         1 <0>         0.4273
     50 H21        -5.9659    0.8128    5.5492 H         1 <0>         0.0862
     51 H22        -6.1803    2.4547    4.8964 H         1 <0>         0.0786
     52 H23        -6.3496    1.0424    3.8264 H         1 <0>         0.0883
     53 H24        -4.2239   -1.3276    3.4249 H         1 <0>         0.0814
     54 H25        -5.3097   -0.1838    2.5995 H         1 <0>         0.0821
     55 H26        -3.7380   -0.5997    1.8750 H         1 <0>         0.0653
     56 H27         0.5715   -2.4864    2.6934 H         1 <0>         0.1091
     57 H28        -0.4707   -2.0163    1.3292 H         1 <0>         0.0698
     58 H29         0.9189   -0.9991    1.7792 H         1 <0>         0.0649
     59 N3          1.2911    5.3848    5.8439 N.4       1 <0>        -0.3716
     60 H30         0.4813    5.9587    5.5809 H         1 <0>         0.4441
@<TRIPOS>BOND
     1    1    2 1
     2    1   30 1
     3    1   31 1
     4    1   32 1
     5    2    3 1
     6    2   33 1
     7    2   34 1
     8    3   35 1
     9    3   36 1
    10    3   59 1
    11    4    5 1
    12    4   37 1
    13    4   38 1
    14    4   59 1
    15    5    6 2
    16    5    7 am
    17    7    8 1
    18    7   39 1
    19    8   13 ar
    20    8    9 ar
    21    9   10 ar
    22    9   40 1
    23   10   11 ar
    24   10   41 1
    25   11   12 ar
    26   11   42 1
    27   12   13 ar
    28   12   43 1
    29   13   14 1
    30   14   44 1
    31   14   45 1
    32   14   46 1
    33   15   16 1
    34   15   47 1
    35   15   48 1
    36   15   59 1
    37   16   17 2
    38   16   18 am
    39   18   19 1
    40   18   49 1
    41   19   23 1
    42   19   20 2
    43   20   21 1
    44   20   26 1
    45   21   22 2
    46   21   25 1
    47   22   23 1
    48   22   24 1
    49   24   50 1
    50   24   51 1
    51   24   52 1
    52   25   53 1
    53   25   54 1
    54   25   55 1
    55   26   27 2
    56   26   28 1
    57   28   29 1
    58   29   56 1
    59   29   57 1
    60   29   58 1
    61   59   60 1
