@<TRIPOS>MOLECULE
ZINC41686529
   39    41     0     0     0
SMALL
USER_CHARGES

@<TRIPOS>ATOM
      1 C1         -0.0187    1.5258    0.0104 C.3       1 <0>        -0.1520
      2 C2          0.0021   -0.0041    0.0020 C.3       1 <0>        -0.0494
      3 C3         -1.4370   -0.5278   -0.0186 C.3       1 <0>        -0.0448
      4 C4         -2.1046   -0.1969    1.2915 C.2       1 <0>         0.0812
      5 C5         -1.3902    0.0932    2.4477 C.2       1 <0>        -0.2689
      6 C6         -2.3680    0.3600    3.4874 C.2       1 <0>        -0.1358
      7 C7         -3.5762    0.2148    2.9052 C.2       1 <0>        -0.0141
      8 N1         -3.4057   -0.1201    1.5888 N.pl3     1 <0>        -0.4147
      9 C8         -4.4954   -0.3610    0.6397 C.3       1 <0>         0.0849
     10 C9         -4.7919   -1.8606    0.5735 C.3       1 <0>         0.0651
     11 H1         -3.8779   -2.4082    0.3437 H         1 <0>         0.0870
     12 C10        -5.8548   -2.1368   -0.5115 C.3       1 <0>        -0.1495
     13 C11        -6.7253   -3.2381    0.1528 C.3       1 <0>        -0.1558
     14 C12        -6.6585   -2.8087    1.6400 C.3       1 <0>         0.0463
     15 O1         -5.3236   -2.3066    1.8265 O.3       1 <0>        -0.3685
     16 C13         0.0762    0.0917    2.4757 C.2       1 <0>         0.4293
     17 O2          0.7103    0.5329    3.4115 O.2       1 <0>        -0.4684
     18 C14         0.7441   -0.5053    1.2451 C.3       1 <0>        -0.1550
     19 C15         0.7325   -0.4910   -1.2511 C.3       1 <0>        -0.1430
     20 H2          1.0039    1.9031    0.0027 H         1 <0>         0.0611
     21 H3         -0.5459    1.8868   -0.8726 H         1 <0>         0.0589
     22 H4         -0.5289    1.8773    0.9072 H         1 <0>         0.0615
     23 H5         -1.9842   -0.0567   -0.8352 H         1 <0>         0.0799
     24 H6         -1.4291   -1.6085   -0.1605 H         1 <0>         0.0867
     25 H7         -2.1688    0.6206    4.5164 H         1 <0>         0.1464
     26 H8         -4.5279    0.3422    3.3997 H         1 <0>         0.1655
     27 H9         -5.3878    0.1716    0.9684 H         1 <0>         0.0993
     28 H10        -4.2026   -0.0045   -0.3478 H         1 <0>         0.1011
     29 H11        -6.4460   -1.2433   -0.7118 H         1 <0>         0.0823
     30 H12        -5.3897   -2.5082   -1.4246 H         1 <0>         0.0887
     31 H13        -7.7494   -3.2072   -0.2194 H         1 <0>         0.0874
     32 H14        -6.2867   -4.2256    0.0089 H         1 <0>         0.0812
     33 H15        -7.3895   -2.0255    1.8409 H         1 <0>         0.0625
     34 H16        -6.8334   -3.6662    2.2897 H         1 <0>         0.0888
     35 H17         0.6919   -1.5931    1.2900 H         1 <0>         0.0984
     36 H18         1.7862   -0.1887    1.2031 H         1 <0>         0.0924
     37 H19         1.7543   -0.1115   -1.2466 H         1 <0>         0.0636
     38 H20         0.7496   -1.5808   -1.2613 H         1 <0>         0.0600
     39 H21         0.2138   -0.1275   -2.1382 H         1 <0>         0.0606
@<TRIPOS>BOND
     1    1    2 1
     2    1   20 1
     3    1   21 1
     4    1   22 1
     5    2   18 1
     6    2    3 1
     7    2   19 1
     8    3    4 1
     9    3   23 1
    10    3   24 1
    11    4    8 1
    12    4    5 2
    13    5    6 1
    14    5   16 1
    15    6    7 2
    16    6   25 1
    17    7    8 1
    18    7   26 1
    19    8    9 1
    20    9   10 1
    21    9   27 1
    22    9   28 1
    23   10   11 1
    24   10   15 1
    25   10   12 1
    26   12   13 1
    27   12   29 1
    28   12   30 1
    29   13   14 1
    30   13   31 1
    31   13   32 1
    32   14   15 1
    33   14   33 1
    34   14   34 1
    35   16   17 2
    36   16   18 1
    37   18   35 1
    38   18   36 1
    39   19   37 1
    40   19   38 1
    41   19   39 1
