@<TRIPOS>MOLECULE
ZINC36165338
   38    39     0     0     0
SMALL
USER_CHARGES

@<TRIPOS>ATOM
      1 C1         -0.8521   -3.5924   -1.5828 C.3       1 <0>        -0.1023
      2 C2         -1.5892   -2.5489   -0.7837 C.2       1 <0>         0.1407
      3 C3         -2.1658   -1.3966   -1.2793 C.2       1 <0>        -0.2939
      4 C4         -2.7459   -0.7165   -0.1850 C.2       1 <0>         0.1200
      5 N1         -2.5267   -1.4214    0.8905 N.2       1 <0>        -0.2893
      6 N2         -1.8109   -2.5717    0.5404 N.pl3     1 <0>        -0.4592
      7 H1         -1.5220   -3.2674    1.1515 H         1 <0>         0.4443
      8 C5         -3.4875    0.5939   -0.2490 C.3       1 <0>        -0.0807
      9 C6         -2.1747   -0.9579   -2.6865 C.2       1 <0>         0.6028
     10 O1         -3.0814   -1.2960   -3.4231 O.2       1 <0>        -0.5103
     11 N3         -1.1780   -0.1821   -3.1569 N.am      1 <0>        -0.6670
     12 C7         -1.1345    0.1544   -4.5138 C.ar      1 <0>         0.1371
     13 C8          0.0876    0.2695   -5.1634 C.ar      1 <0>        -0.1412
     14 C9          0.1271    0.6020   -6.5033 C.ar      1 <0>        -0.1000
     15 C10        -1.0485    0.8201   -7.1981 C.ar      1 <0>        -0.0891
     16 C11        -2.2670    0.7063   -6.5542 C.ar      1 <0>        -0.0964
     17 C12        -2.3136    0.3685   -5.2158 C.ar      1 <0>        -0.1169
     18 C13        -1.0016    1.1831   -8.6599 C.3       1 <0>        -0.0562
     19 C14        -1.7523    0.1260   -9.4723 C.3       1 <0>        -0.1456
     20 C15        -1.6601    2.5485   -8.8677 C.3       1 <0>        -0.1452
     21 H2         -1.5565   -4.3476   -1.9315 H         1 <0>         0.0919
     22 H3         -0.3710   -3.1210   -2.4398 H         1 <0>         0.0880
     23 H4         -0.0956   -4.0634   -0.9551 H         1 <0>         0.0816
     24 H5         -4.5476    0.4036   -0.4170 H         1 <0>         0.0855
     25 H6         -3.3592    1.1303    0.6911 H         1 <0>         0.0818
     26 H7         -3.0922    1.1955   -1.0675 H         1 <0>         0.0772
     27 H8         -0.4908    0.1429   -2.5543 H         1 <0>         0.4117
     28 H9          1.0061    0.0996   -4.6213 H         1 <0>         0.1244
     29 H10         1.0771    0.6920   -7.0090 H         1 <0>         0.1248
     30 H11        -3.1833    0.8776   -7.0995 H         1 <0>         0.1244
     31 H12        -3.2657    0.2754   -4.7146 H         1 <0>         0.1387
     32 H13         0.0361    1.2261   -8.9905 H         1 <0>         0.0768
     33 H14        -1.2832   -0.8467   -9.3242 H         1 <0>         0.0557
     34 H15        -2.7901    0.0830   -9.1417 H         1 <0>         0.0571
     35 H16        -1.7184    0.3886  -10.5296 H         1 <0>         0.0581
     36 H17        -1.1253    3.3016   -8.2890 H         1 <0>         0.0558
     37 H18        -1.6262    2.8111   -9.9250 H         1 <0>         0.0580
     38 H19        -2.6978    2.5055   -8.5371 H         1 <0>         0.0570
@<TRIPOS>BOND
     1    1    2 1
     2    1   21 1
     3    1   22 1
     4    1   23 1
     5    2    6 1
     6    2    3 2
     7    3    4 1
     8    3    9 1
     9    4    5 2
    10    4    8 1
    11    5    6 1
    12    6    7 1
    13    8   24 1
    14    8   25 1
    15    8   26 1
    16    9   10 2
    17    9   11 am
    18   11   12 1
    19   11   27 1
    20   12   17 ar
    21   12   13 ar
    22   13   14 ar
    23   13   28 1
    24   14   15 ar
    25   14   29 1
    26   15   16 ar
    27   15   18 1
    28   16   17 ar
    29   16   30 1
    30   17   31 1
    31   18   19 1
    32   18   20 1
    33   18   32 1
    34   19   33 1
    35   19   34 1
    36   19   35 1
    37   20   36 1
    38   20   37 1
    39   20   38 1
