@<TRIPOS>MOLECULE
ZINC39948159
   44    46     0     0     0
SMALL
USER_CHARGES

@<TRIPOS>ATOM
      1 C1         -0.2761    1.0125    1.7941 C.3       1 <0>         0.0266
      2 O1         -0.1702   -0.2786    1.1908 O.3       1 <0>        -0.3189
      3 C2         -1.2885   -0.7773    0.5999 C.ar      1 <0>         0.1173
      4 C3         -2.4604   -0.0382    0.5956 C.ar      1 <0>        -0.1912
      5 C4         -3.5966   -0.5467   -0.0056 C.ar      1 <0>        -0.0790
      6 C5         -3.5682   -1.7929   -0.6046 C.ar      1 <0>        -0.1388
      7 C6         -2.4040   -2.5369   -0.6049 C.ar      1 <0>        -0.0785
      8 C7         -1.2575   -2.0310   -0.0081 C.ar      1 <0>         0.0946
      9 N1         -0.0760   -2.7799   -0.0117 N.am      1 <0>        -0.6200
     10 C8         -0.1293   -4.1232    0.0834 C.2       1 <0>         0.5161
     11 O2         -1.2033   -4.6892    0.0903 O.2       1 <0>        -0.4979
     12 C9          1.1315   -4.9147    0.1800 C.2       1 <0>         0.5342
     13 O3          2.2056   -4.3487    0.1730 O.2       1 <0>        -0.4568
     14 N2          1.0782   -6.2580    0.2750 N.am      1 <0>        -0.5545
     15 N3          2.2623   -7.0013    0.3657 N.2       1 <0>        -0.1703
     16 C10         2.2117   -8.2774    0.4560 C.2       1 <0>         0.0455
     17 C11         3.4853   -9.0770    0.5536 C.3       1 <0>        -0.0787
     18 H1          4.3193   -8.3755    0.5293 H         1 <0>         0.1950
     19 C12         3.5794   -9.9543   -0.6794 C.2       1 <0>         0.1545
     20 C13         3.6691  -11.3005   -0.4831 C.ar      1 <0>        -0.1847
     21 C14         3.7631  -12.2199   -1.6177 C.ar      1 <0>         0.0225
     22 C15         3.8502  -13.5532   -1.3744 C.ar      1 <0>        -0.1686
     23 C16         3.8509  -14.0558   -0.0730 C.ar      1 <0>         0.0971
     24 C17         3.7668  -13.2556    1.0218 C.ar      1 <0>        -0.2280
     25 C18         3.6727  -11.8589    0.8801 C.ar      1 <0>         0.3598
     26 N4          3.5907  -11.0837    1.9612 N.am      1 <0>        -0.5941
     27 C19         3.4982   -9.7666    1.8992 C.2       1 <0>         0.5238
     28 O4          3.4253   -9.1115    2.9217 O.2       1 <0>        -0.4125
     29 H2          0.6845    1.2908    2.2277 H         1 <0>         0.1049
     30 H3         -0.5593    1.7448    1.0380 H         1 <0>         0.0604
     31 H4         -1.0342    0.9868    2.5768 H         1 <0>         0.0594
     32 H5         -2.4862    0.9354    1.0624 H         1 <0>         0.1378
     33 H6         -4.5093    0.0308   -0.0072 H         1 <0>         0.1325
     34 H7         -4.4586   -2.1858   -1.0729 H         1 <0>         0.1332
     35 H8         -2.3849   -3.5099   -1.0731 H         1 <0>         0.1465
     36 H9          0.7817   -2.3323   -0.0826 H         1 <0>         0.4281
     37 H10         0.2201   -6.7102    0.2806 H         1 <0>         0.4113
     38 H11         1.2562   -8.7808    0.4622 H         1 <0>         0.1415
     39 H12         3.5759   -9.5301   -1.6726 H         1 <0>         0.2045
     40 H13         3.7630  -11.8449   -2.6305 H         1 <0>         0.1767
     41 H14         3.9199  -14.2388   -2.2060 H         1 <0>         0.1664
     42 H15         3.9216  -15.1239    0.0700 H         1 <0>         0.1682
     43 H16         3.7718  -13.6950    2.0083 H         1 <0>         0.1715
     44 H17         3.5979  -11.5061    2.8344 H         1 <0>         0.4424
@<TRIPOS>BOND
     1    1    2 1
     2    1   29 1
     3    1   30 1
     4    1   31 1
     5    2    3 1
     6    3    8 ar
     7    3    4 ar
     8    4    5 ar
     9    4   32 1
    10    5    6 ar
    11    5   33 1
    12    6    7 ar
    13    6   34 1
    14    7    8 ar
    15    7   35 1
    16    8    9 1
    17    9   10 am
    18    9   36 1
    19   10   11 2
    20   10   12 1
    21   12   13 2
    22   12   14 am
    23   14   15 1
    24   14   37 1
    25   15   16 2
    26   16   17 1
    27   16   38 1
    28   17   18 1
    29   17   27 1
    30   17   19 1
    31   19   20 2
    32   19   39 1
    33   20   25 ar
    34   20   21 ar
    35   21   22 ar
    36   21   40 1
    37   22   23 ar
    38   22   41 1
    39   23   24 ar
    40   23   42 1
    41   24   25 ar
    42   24   43 1
    43   25   26 2
    44   26   27 am
    45   26   44 1
    46   27   28 2
