@<TRIPOS>MOLECULE
ZINC61575214
   30    31     0     0     0
SMALL
USER_CHARGES

@<TRIPOS>ATOM
      1 C1         -0.0107    1.3900    0.2273 C.ar      1 <0>        -0.0631
      2 C2          1.1704    2.0891    0.0662 C.ar      1 <0>        -0.1483
      3 C3          2.3865    1.4237    0.1421 C.ar      1 <0>         0.2605
      4 C4          2.4127    0.0541    0.3804 C.ar      1 <0>        -0.0345
      5 C5          1.2261   -0.6407    0.5409 C.ar      1 <0>         0.1017
      6 C6          0.0156    0.0285    0.4641 C.ar      1 <0>        -0.2033
      7 F1          1.2486   -1.9715    0.7725 F         1 <0>        -0.1405
      8 F2          3.5939   -0.5975    0.4546 F         1 <0>        -0.1430
      9 N1          3.5826    2.1295   -0.0211 N.pl3     1 <0>        -0.6942
     10 C7          3.5627    3.5908   -0.1242 C.3       1 <0>         0.1060
     11 C8          4.9923    4.1095   -0.2478 C.3       1 <0>        -0.1114
     12 C9          5.8880    3.4898    0.8206 C.3       1 <0>        -0.1238
     13 C10         5.5354    4.0652    2.1954 C.3       1 <0>        -0.0764
     14 S1          3.8176    3.6190    2.5906 S.3       1 <0>        -0.2786
     15 C11         2.8999    4.1797    1.1246 C.3       1 <0>        -0.0759
     16 C12         2.7780    3.9957   -1.3454 C.2       1 <0>         0.4935
     17 O1          2.2823    3.1428   -2.0619 O.co2     1 <0>        -0.6623
     18 O2          2.6390    5.1761   -1.6170 O.co2     1 <0>        -0.6859
     19 H1         -0.9561    1.9093    0.1725 H         1 <0>         0.1296
     20 H2          1.1474    3.1528   -0.1191 H         1 <0>         0.1419
     21 H3         -0.9094   -0.5146    0.5898 H         1 <0>         0.1307
     22 H4          4.4255    1.6516   -0.0661 H         1 <0>         0.3953
     23 H5          5.3818    3.8559   -1.2337 H         1 <0>         0.0719
     24 H6          4.9919    5.1933   -0.1311 H         1 <0>         0.0814
     25 H7          5.7430    2.4095    0.8324 H         1 <0>         0.0727
     26 H8          6.9305    3.7113    0.5920 H         1 <0>         0.0723
     27 H9          6.2040    3.6485    2.9487 H         1 <0>         0.0981
     28 H10         5.6356    5.1504    2.1743 H         1 <0>         0.0803
     29 H11         2.9238    5.2682    1.0724 H         1 <0>         0.0946
     30 H12         1.8670    3.8369    1.1865 H         1 <0>         0.1107
@<TRIPOS>BOND
     1    1    6 ar
     2    1    2 ar
     3    1   19 1
     4    2    3 ar
     5    2   20 1
     6    3    4 ar
     7    3    9 1
     8    4    5 ar
     9    4    8 1
    10    5    6 ar
    11    5    7 1
    12    6   21 1
    13    9   10 1
    14    9   22 1
    15   10   15 1
    16   10   11 1
    17   10   16 1
    18   11   12 1
    19   11   23 1
    20   11   24 1
    21   12   13 1
    22   12   25 1
    23   12   26 1
    24   13   14 1
    25   13   27 1
    26   13   28 1
    27   14   15 1
    28   15   29 1
    29   15   30 1
    30   16   17 2
    31   16   18 1
