@<TRIPOS>MOLECULE
ZINC39929902
   46    49     0     0     0
SMALL
USER_CHARGES

@<TRIPOS>ATOM
      1 C1         -0.0184    1.5028    0.0103 C.3       1 <0>        -0.1125
      2 C2          0.0021   -0.0041    0.0020 C.ar      1 <0>        -0.1135
      3 C3          0.0058   -0.6874   -1.2001 C.ar      1 <0>        -0.0860
      4 C4          0.0249   -2.0684   -1.2111 C.ar      1 <0>        -0.1486
      5 C5          0.0405   -2.7706   -0.0132 C.ar      1 <0>         0.1895
      6 C6          0.0368   -2.0814    1.1924 C.ar      1 <0>        -0.1617
      7 C7          0.0229   -0.7004    1.1965 C.ar      1 <0>        -0.0885
      8 N1          0.0595   -4.1699   -0.0209 N.am      1 <0>        -0.5663
      9 C8          0.0715   -5.0498    1.1736 C.3       1 <0>         0.2955
     10 H1          0.7050   -4.6532    1.9669 H         1 <0>         0.0996
     11 C9          0.6342   -6.3531    0.5891 C.3       1 <0>         0.3687
     12 H2          1.7197   -6.3499    0.6883 H         1 <0>         0.1114
     13 N2          0.2804   -6.2556   -0.8348 N.am      1 <0>        -0.7337
     14 C10         0.0642   -4.9553   -1.1120 C.2       1 <0>         0.7162
     15 O1         -0.1068   -4.5323   -2.2390 O.2       1 <0>        -0.5519
     16 N3          0.1064   -7.5505    1.1939 N.pl3     1 <0>        -0.9820
     17 C11        -1.2000   -7.6295    1.8400 C.3       1 <0>         0.1171
     18 C12        -1.4798   -6.3068    2.5603 C.3       1 <0>         0.0597
     19 N4         -1.3178   -5.2091    1.6156 N.3       1 <0>        -0.6983
     20 S1          1.0382   -8.9188    1.1525 S.o2      1 <0>         2.6782
     21 O2          0.1479  -10.0201    1.2704 O.2       1 <0>        -0.9402
     22 O3          1.9269   -8.7720    0.0535 O.2       1 <0>        -0.9433
     23 C13         2.0319   -8.9166    2.6076 C.ar      1 <0>        -0.6793
     24 C14         3.2744   -8.3109    2.5951 C.ar      1 <0>        -0.0230
     25 C15         4.0540   -8.3092    3.7366 C.ar      1 <0>        -0.1372
     26 C16         3.5909   -8.9128    4.8908 C.ar      1 <0>        -0.0595
     27 C17         2.3480   -9.5177    4.9035 C.ar      1 <0>        -0.1374
     28 C18         1.5666   -9.5157    3.7632 C.ar      1 <0>        -0.0203
     29 H3          1.0042    1.8801    0.0026 H         1 <0>         0.0688
     30 H4         -0.5455    1.8639   -0.8728 H         1 <0>         0.0659
     31 H5         -0.5286    1.8543    0.9071 H         1 <0>         0.0648
     32 H6         -0.0067   -0.1407   -2.1314 H         1 <0>         0.1272
     33 H7          0.0274   -2.6015   -2.1503 H         1 <0>         0.1557
     34 H8          0.0488   -2.6248    2.1257 H         1 <0>         0.1173
     35 H9          0.0244   -0.1637    2.1338 H         1 <0>         0.1259
     36 H10         0.2115   -6.9937   -1.4603 H         1 <0>         0.4354
     37 H11        -1.9690   -7.8052    1.0879 H         1 <0>         0.0878
     38 H12        -1.2008   -8.4457    2.5625 H         1 <0>         0.0991
     39 H13        -2.4972   -6.3094    2.9515 H         1 <0>         0.1034
     40 H14        -0.7712   -6.1767    3.3783 H         1 <0>         0.0464
     41 H15        -1.6817   -4.3430    1.9839 H         1 <0>         0.3628
     42 H16         3.6362   -7.8394    1.6933 H         1 <0>         0.1400
     43 H17         5.0250   -7.8366    3.7266 H         1 <0>         0.1359
     44 H18         4.2002   -8.9120    5.7824 H         1 <0>         0.1339
     45 H19         1.9863   -9.9895    5.8052 H         1 <0>         0.1360
     46 H20         0.5939   -9.9850    3.7743 H         1 <0>         0.1410
@<TRIPOS>BOND
     1    1    2 1
     2    1   29 1
     3    1   30 1
     4    1   31 1
     5    2    7 ar
     6    2    3 ar
     7    3    4 ar
     8    3   32 1
     9    4    5 ar
    10    4   33 1
    11    5    6 ar
    12    5    8 1
    13    6    7 ar
    14    6   34 1
    15    7   35 1
    16    8   14 am
    17    8    9 1
    18    9   10 1
    19    9   19 1
    20    9   11 1
    21   11   12 1
    22   11   13 1
    23   11   16 1
    24   13   14 am
    25   13   36 1
    26   14   15 2
    27   16   17 1
    28   16   20 1
    29   17   18 1
    30   17   37 1
    31   17   38 1
    32   18   19 1
    33   18   39 1
    34   18   40 1
    35   19   41 1
    36   20   21 2
    37   20   22 2
    38   20   23 1
    39   23   28 ar
    40   23   24 ar
    41   24   25 ar
    42   24   42 1
    43   25   26 ar
    44   25   43 1
    45   26   27 ar
    46   26   44 1
    47   27   28 ar
    48   27   45 1
    49   28   46 1
