@<TRIPOS>MOLECULE
ZINC23380389
   57    60     0     0     0
SMALL
USER_CHARGES
N-[4-(2-hydroxyethyl)phenyl]-5-[(2R)-1-tetrahydropyran-4-ylpyrrolidin-2-yl]thiophene-2-carboxamide
@<TRIPOS>ATOM
      1 C1          3.2565   -6.4162    7.4127 C.ar      1 <0>        -0.0941
      2 C2          3.1766   -5.6412    6.2724 C.ar      1 <0>        -0.1151
      3 C3          2.3969   -4.4917    6.2690 C.ar      1 <0>         0.1329
      4 C4          1.7044   -4.1226    7.4150 C.ar      1 <0>        -0.1358
      5 C5          1.7840   -4.9051    8.5502 C.ar      1 <0>        -0.0944
      6 C6          2.5612   -6.0489    8.5503 C.ar      1 <0>        -0.0850
      7 C7          2.6502   -6.8973    9.7926 C.3       1 <0>        -0.0851
      8 C8          3.8156   -6.4136   10.6580 C.3       1 <0>         0.0918
      9 O1          3.9000   -7.2180   11.8361 O.3       1 <0>        -0.6044
     10 N1          2.3139   -3.7048    5.1160 N.am      1 <0>        -0.6717
     11 C9          2.3325   -4.2864    3.9004 C.2       1 <0>         0.5950
     12 O2          2.5059   -5.4872    3.8028 O.2       1 <0>        -0.4886
     13 C10         2.1439   -3.4731    2.6960 C.2       1 <0>        -0.1739
     14 C11         2.1286   -3.8692    1.3676 C.2       1 <0>        -0.0778
     15 C12         1.9246   -2.8914    0.4261 C.2       1 <0>        -0.1072
     16 C13         1.7620   -1.6044    0.8307 C.2       1 <0>        -0.2446
     17 S1          1.8748   -1.7149    2.5571 S.3       1 <0>         0.1375
     18 C14         1.5326   -0.3790   -0.0159 C.3       1 <0>         0.1361
     19 H1          1.9235   -0.6149   -1.0167 H         1 <0>         0.1592
     20 C15         0.0394    0.0129   -0.0024 C.3       1 <0>        -0.1375
     21 C16         0.0299    1.5555    0.0060 C.3       1 <0>        -0.1467
     22 C17         1.5181    1.9658   -0.0030 C.3       1 <0>        -0.0031
     23 N2          2.2329    0.7946    0.5666 N.4       1 <0>        -0.4086
     24 C18         3.6508    0.8055    0.1827 C.3       1 <0>         0.0273
     25 C19         4.3312   -0.4660    0.6993 C.3       1 <0>        -0.1857
     26 C20         5.8238   -0.4091    0.3634 C.3       1 <0>         0.0625
     27 O3          6.3963    0.7658    0.9412 O.3       1 <0>        -0.3672
     28 C21         5.8316    1.9872    0.4601 C.3       1 <0>         0.0609
     29 C22         4.3394    2.0266    0.7998 C.3       1 <0>        -0.1758
     30 H2          3.8628   -7.3099    7.4162 H         1 <0>         0.1303
     31 H3          3.7196   -5.9288    5.3842 H         1 <0>         0.1392
     32 H4          1.1011   -3.2268    7.4170 H         1 <0>         0.1270
     33 H5          1.2422   -4.6210    9.4402 H         1 <0>         0.1309
     34 H6          1.7122   -6.8145   10.3611 H         1 <0>         0.0822
     35 H7          2.8153   -7.9471    9.5086 H         1 <0>         0.0825
     36 H8          4.7536   -6.4965   10.0894 H         1 <0>         0.0427
     37 H9          3.6505   -5.3638   10.9419 H         1 <0>         0.0423
     38 H10         4.6822   -7.0186   12.5834 H         1 <0>         0.4141
     39 H11         2.2334   -2.6111    5.2012 H         1 <0>         0.4284
     40 H12         2.2664   -4.9028    1.0861 H         1 <0>         0.1655
     41 H13         1.8973   -3.1415   -0.6242 H         1 <0>         0.1541
     42 H14        -0.4537   -0.3907   -0.8990 H         1 <0>         0.1186
     43 H15        -0.4401   -0.4004    0.8972 H         1 <0>         0.1032
     44 H16        -0.4976    1.9238   -0.8862 H         1 <0>         0.1171
     45 H17        -0.4841    1.9141    0.9100 H         1 <0>         0.1033
     46 H18         1.8343    2.1759   -1.0354 H         1 <0>         0.1393
     47 H19         1.6537    2.8672    0.6126 H         1 <0>         0.1405
     48 H20         3.6862    0.8499   -0.9158 H         1 <0>         0.1354
     49 H21         4.2001   -0.5350    1.7893 H         1 <0>         0.0965
     50 H22         3.8777   -1.3456    0.2191 H         1 <0>         0.1030
     51 H23         6.3253   -1.2999    0.7697 H         1 <0>         0.1158
     52 H24         5.9531   -0.3816   -0.7286 H         1 <0>         0.0654
     53 H25         6.3393    2.8387    0.9368 H         1 <0>         0.1181
     54 H26         5.9615    2.0467   -0.6306 H         1 <0>         0.0661
     55 H27         3.8918    2.9450    0.3921 H         1 <0>         0.1011
     56 H28         4.2085    2.0085    1.8918 H         1 <0>         0.0964
     57 H29         2.2309    0.7885    1.6666 H         1 <0>         0.4405
@<TRIPOS>BOND
     1    1    6 ar
     2    1    2 ar
     3    1   30 1
     4    2    3 ar
     5    2   31 1
     6    3    4 ar
     7    3   10 1
     8    4    5 ar
     9    4   32 1
    10    5    6 ar
    11    5   33 1
    12    6    7 1
    13    7    8 1
    14    7   34 1
    15    7   35 1
    16    8    9 1
    17    8   36 1
    18    8   37 1
    19    9   38 1
    20   10   11 am
    21   10   39 1
    22   11   12 2
    23   11   13 1
    24   13   17 1
    25   13   14 2
    26   14   15 1
    27   14   40 1
    28   15   16 2
    29   15   41 1
    30   16   17 1
    31   16   18 1
    32   18   19 1
    33   18   23 1
    34   18   20 1
    35   20   21 1
    36   20   42 1
    37   20   43 1
    38   21   22 1
    39   21   44 1
    40   21   45 1
    41   22   23 1
    42   22   46 1
    43   22   47 1
    44   23   24 1
    45   23   57 1
    46   24   29 1
    47   24   25 1
    48   24   48 1
    49   25   26 1
    50   25   49 1
    51   25   50 1
    52   26   27 1
    53   26   51 1
    54   26   52 1
    55   27   28 1
    56   28   29 1
    57   28   53 1
    58   28   54 1
    59   29   55 1
    60   29   56 1
