@<TRIPOS>MOLECULE
ZINC49044215
   39    41     0     0     0
SMALL
USER_CHARGES

@<TRIPOS>ATOM
      1 C1         -0.0187    1.5258    0.0104 C.3       1 <0>        -0.1417
      2 C2          0.0021   -0.0041    0.0020 C.3       1 <0>        -0.0163
      3 C3          0.7182   -0.4975   -1.2568 C.3       1 <0>        -0.1434
      4 C4          0.7309   -0.5033    1.2229 C.2       1 <0>         0.0987
      5 C5          2.1145   -0.6596    1.3430 C.2       1 <0>        -0.2698
      6 C6          2.3737   -1.1302    2.5936 C.2       1 <0>         0.3046
      7 N1          1.1894   -1.2633    3.2333 N.pl3     1 <0>        -0.4932
      8 H1          1.0637   -1.5795    4.1417 H         1 <0>         0.4352
      9 N2          0.1771   -0.8592    2.3537 N.2       1 <0>        -0.2860
     10 N3          3.6319   -1.4226    3.1197 N.am      1 <0>        -0.6535
     11 C7          4.7354   -1.2428    2.3670 C.2       1 <0>         0.5277
     12 O1          4.6343   -0.8267    1.2322 O.2       1 <0>        -0.4966
     13 C8          6.0949   -1.5587    2.9354 C.3       1 <0>        -0.1081
     14 H2          6.1477   -2.6062    3.2323 H         1 <0>         0.1048
     15 C9          6.4015   -0.6409    4.1409 C.3       1 <0>        -0.1151
     16 C10         7.6719    0.1570    3.7157 C.3       1 <0>        -0.1038
     17 H3          7.8588    1.0816    4.2618 H         1 <0>         0.1014
     18 C11         8.8218   -0.8958    3.7443 C.3       1 <0>        -0.1230
     19 C12         8.5274   -1.8286    2.5473 C.3       1 <0>        -0.1235
     20 C13         7.2087   -1.2319    1.8943 C.3       1 <0>        -0.0780
     21 H4          6.9991   -1.5232    0.8651 H         1 <0>         0.1116
     22 C14         7.4212    0.3012    2.1731 C.3       1 <0>        -0.1241
     23 H5          1.0039    1.9031    0.0027 H         1 <0>         0.0593
     24 H6         -0.5459    1.8868   -0.8726 H         1 <0>         0.0641
     25 H7         -0.5289    1.8773    0.9072 H         1 <0>         0.0558
     26 H8         -1.0205   -0.3814    0.0098 H         1 <0>         0.0850
     27 H9          1.7408   -0.1202   -1.2645 H         1 <0>         0.0627
     28 H10         0.7330   -1.5874   -1.2628 H         1 <0>         0.0566
     29 H11         0.1910   -0.1364   -2.1398 H         1 <0>         0.0629
     30 H12         2.8476   -0.4454    0.5793 H         1 <0>         0.1733
     31 H13         3.7128   -1.7553    4.0272 H         1 <0>         0.4114
     32 H14         5.5690    0.0388    4.3224 H         1 <0>         0.0675
     33 H15         6.6071   -1.2372    5.0299 H         1 <0>         0.0781
     34 H16         9.7877   -0.4071    3.6166 H         1 <0>         0.0662
     35 H17         8.7996   -1.4575    4.6782 H         1 <0>         0.0659
     36 H18         9.3485   -1.7985    1.8312 H         1 <0>         0.0695
     37 H19         8.3605   -2.8489    2.8927 H         1 <0>         0.0663
     38 H20         6.5256    0.8839    1.9572 H         1 <0>         0.0729
     39 H21         8.2942    0.6939    1.6520 H         1 <0>         0.0746
@<TRIPOS>BOND
     1    1    2 1
     2    1   23 1
     3    1   24 1
     4    1   25 1
     5    2    3 1
     6    2    4 1
     7    2   26 1
     8    3   27 1
     9    3   28 1
    10    3   29 1
    11    4    9 2
    12    4    5 1
    13    5    6 2
    14    5   30 1
    15    6    7 1
    16    6   10 1
    17    7    8 1
    18    7    9 1
    19   10   11 am
    20   10   31 1
    21   11   12 2
    22   11   13 1
    23   13   14 1
    24   13   20 1
    25   13   15 1
    26   15   16 1
    27   15   32 1
    28   15   33 1
    29   16   17 1
    30   16   22 1
    31   16   18 1
    32   18   19 1
    33   18   34 1
    34   18   35 1
    35   19   20 1
    36   19   36 1
    37   19   37 1
    38   20   21 1
    39   20   22 1
    40   22   38 1
    41   22   39 1
