@<TRIPOS>MOLECULE
ZINC61720581
   50    52     0     0     0
SMALL
USER_CHARGES

@<TRIPOS>ATOM
      1 C1          0.1268    1.6829    0.0692 C.3       1 <0>        -0.1628
      2 C2          0.1840    0.1540    0.0635 C.3       1 <0>         0.1437
      3 H1          0.7045   -0.1934    0.9560 H         1 <0>         0.1248
      4 C3         -1.2170   -0.4010    0.0510 C.2       1 <0>         0.5163
      5 O1         -1.5806   -1.1090   -0.8643 O.2       1 <0>        -0.5141
      6 N1         -2.0659   -0.1107    1.0567 N.am      1 <0>        -0.6592
      7 C4         -3.4005   -0.5274    0.9884 C.ar      1 <0>         0.1526
      8 C5         -3.9942   -0.7615   -0.2447 C.ar      1 <0>        -0.1197
      9 C6         -5.3110   -1.1730   -0.3089 C.ar      1 <0>        -0.0929
     10 C7         -6.0390   -1.3518    0.8533 C.ar      1 <0>        -0.1197
     11 C8         -5.4517   -1.1198    2.0832 C.ar      1 <0>        -0.0869
     12 C9         -4.1325   -0.7133    2.1548 C.ar      1 <0>        -0.0669
     13 Cl1        -3.3931   -0.4290    3.6996 Cl        1 <0>        -0.0606
     14 N2          0.9012   -0.3034   -1.1292 N.am      1 <0>        -0.7251
     15 C10         2.2466   -0.3819   -1.1178 C.2       1 <0>         0.7161
     16 O2          2.8597   -0.1620   -0.0912 O.2       1 <0>        -0.5707
     17 N3          2.9124   -0.7043   -2.2444 N.am      1 <0>        -0.6325
     18 C11         2.1821   -1.0741   -3.4650 C.3       1 <0>         0.0930
     19 C12         2.6411   -0.1589   -4.6070 C.3       1 <0>         0.0956
     20 N4          4.1104   -0.1464   -4.6371 N.pl3     1 <0>        -0.5884
     21 C13         4.8407    0.2233   -3.4165 C.3       1 <0>         0.0841
     22 C14         4.3816   -0.6864   -2.2761 C.3       1 <0>         0.1151
     23 C15         4.7971   -0.4789   -5.7990 C.ar      1 <0>         0.4446
     24 C16         4.0904   -0.7131   -6.9745 C.ar      1 <0>        -0.2007
     25 C17         4.7862   -1.0430   -8.1232 C.ar      1 <0>         0.0393
     26 C18         6.1709   -1.1279   -8.0580 C.ar      1 <0>        -0.1706
     27 C19         6.8076   -0.8827   -6.8581 C.ar      1 <0>         0.1481
     28 N5          6.1181   -0.5645   -5.7787 N.ar      1 <0>        -0.5071
     29 H2          1.1402    2.0844    0.0783 H         1 <0>         0.0794
     30 H3         -0.3936    2.0304   -0.8233 H         1 <0>         0.0674
     31 H4         -0.4068    2.0233    0.9566 H         1 <0>         0.0782
     32 H5         -1.7521    0.3871    1.8278 H         1 <0>         0.4172
     33 H6         -3.4268   -0.6215   -1.1530 H         1 <0>         0.1520
     34 H7         -5.7729   -1.3552   -1.2680 H         1 <0>         0.1350
     35 H8         -7.0688   -1.6730    0.7999 H         1 <0>         0.1369
     36 H9         -6.0230   -1.2600    2.9890 H         1 <0>         0.1409
     37 H10         0.4077   -0.5497   -1.9272 H         1 <0>         0.4053
     38 H11         2.3965   -2.1121   -3.7193 H         1 <0>         0.0870
     39 H12         1.1116   -0.9481   -3.3031 H         1 <0>         0.1074
     40 H13         2.2590   -0.5373   -5.5551 H         1 <0>         0.1147
     41 H14         2.2701    0.8519   -4.4374 H         1 <0>         0.1023
     42 H15         5.9112    0.0974   -3.5784 H         1 <0>         0.0900
     43 H16         4.6263    1.2613   -3.1622 H         1 <0>         0.1075
     44 H17         4.7633   -0.3045   -1.3293 H         1 <0>         0.1243
     45 H18         4.7562   -1.6961   -2.4438 H         1 <0>         0.0791
     46 H19         3.0130   -0.6387   -6.9895 H         1 <0>         0.1790
     47 H20         4.2646   -1.2306   -9.0500 H         1 <0>         0.1749
     48 H21         6.7437   -1.3837   -8.9371 H         1 <0>         0.1811
     49 H22         7.8842   -0.9480   -6.8029 H         1 <0>         0.2068
     50 H23         6.5906   -0.3932   -4.9491 H         1 <0>         0.4380
@<TRIPOS>BOND
     1    1    2 1
     2    1   29 1
     3    1   30 1
     4    1   31 1
     5    2    3 1
     6    2    4 1
     7    2   14 1
     8    4    5 2
     9    4    6 am
    10    6    7 1
    11    6   32 1
    12    7   12 ar
    13    7    8 ar
    14    8    9 ar
    15    8   33 1
    16    9   10 ar
    17    9   34 1
    18   10   11 ar
    19   10   35 1
    20   11   12 ar
    21   11   36 1
    22   12   13 1
    23   14   15 am
    24   14   37 1
    25   15   16 2
    26   15   17 am
    27   17   22 1
    28   17   18 1
    29   18   19 1
    30   18   38 1
    31   18   39 1
    32   19   20 1
    33   19   40 1
    34   19   41 1
    35   20   21 1
    36   20   23 1
    37   21   22 1
    38   21   42 1
    39   21   43 1
    40   22   44 1
    41   22   45 1
    42   23   28 ar
    43   23   24 ar
    44   24   25 ar
    45   24   46 1
    46   25   26 ar
    47   25   47 1
    48   26   27 ar
    49   26   48 1
    50   27   28 ar
    51   27   49 1
    52   28   50 1
