@<TRIPOS>MOLECULE
ZINC54765082
   33    35     0     0     0
SMALL
USER_CHARGES

@<TRIPOS>ATOM
      1 C1         -0.0168    1.3847    0.0097 C.ar      1 <0>        -0.1558
      2 C2          1.1694    2.0911    0.0021 C.ar      1 <0>        -0.0947
      3 C3          2.3810    1.4133   -0.0131 C.ar      1 <0>         0.1222
      4 C4          2.4002    0.0251   -0.0207 C.ar      1 <0>        -0.0946
      5 C5          1.2143   -0.6818   -0.0132 C.ar      1 <0>        -0.1630
      6 C6          0.0021   -0.0041    0.0020 C.ar      1 <0>         0.1843
      7 N1         -1.1995   -0.7200    0.0096 N.pl3     1 <0>        -0.7559
      8 C7         -1.1795   -2.1848    0.0016 C.3       1 <0>         0.1885
      9 C8         -2.5932   -2.7066    0.0123 C.2       1 <0>         0.0392
     10 C9         -3.3054   -3.0733    1.0948 C.2       1 <0>         0.0289
     11 N2         -4.5143   -3.4784    0.6785 N.pl3     1 <0>        -0.4752
     12 C10        -4.5783   -3.3768   -0.6210 C.cat     1 <0>         0.3141
     13 N3         -3.4023   -2.8934   -1.0759 N.pl3     1 <0>        -0.5052
     14 H1         -3.1730   -2.7140   -2.0012 H         1 <0>         0.4673
     15 N4          3.5864    2.1315   -0.0212 N.am      1 <0>        -0.4753
     16 C11         3.7124    3.5136   -0.0094 C.2       1 <0>        -0.0266
     17 C12         5.0088    3.8055   -0.0228 C.2       1 <0>         0.0114
     18 N5          5.7148    2.6119   -0.0432 N.am      1 <0>        -0.6377
     19 H2          6.6805    2.5213   -0.0558 H         1 <0>         0.4384
     20 C13         4.8248    1.6002   -0.0359 C.2       1 <0>         0.6527
     21 O1          5.0928    0.4122   -0.0446 O.2       1 <0>        -0.5580
     22 H3         -0.9592    1.9120    0.0260 H         1 <0>         0.1292
     23 H4          1.1548    3.1710    0.0077 H         1 <0>         0.1338
     24 H5          3.3428   -0.5018   -0.0329 H         1 <0>         0.1587
     25 H6          1.2293   -1.7617   -0.0195 H         1 <0>         0.1277
     26 H7         -2.0461   -0.2466    0.0203 H         1 <0>         0.4014
     27 H8         -0.6692   -2.5363   -0.8952 H         1 <0>         0.0923
     28 H9         -0.6522   -2.5458    0.8846 H         1 <0>         0.1079
     29 H10        -2.9631   -3.0458    2.1188 H         1 <0>         0.2280
     30 H11        -5.4318   -3.6330   -1.2311 H         1 <0>         0.2689
     31 H12         2.9007    4.2257    0.0071 H         1 <0>         0.1857
     32 H13         5.4369    4.7970   -0.0191 H         1 <0>         0.1917
     33 H14        -5.2283   -3.7971    1.2526 H         1 <0>         0.4695
@<TRIPOS>BOND
     1    1    6 ar
     2    1    2 ar
     3    1   22 1
     4    2    3 ar
     5    2   23 1
     6    3    4 ar
     7    3   15 1
     8    4    5 ar
     9    4   24 1
    10    5    6 ar
    11    5   25 1
    12    6    7 1
    13    7    8 1
    14    7   26 1
    15    8    9 1
    16    8   27 1
    17    8   28 1
    18    9   13 1
    19    9   10 2
    20   10   11 1
    21   10   29 1
    22   11   12 2
    23   11   33 1
    24   12   13 1
    25   12   30 1
    26   13   14 1
    27   15   20 am
    28   15   16 1
    29   16   17 2
    30   16   31 1
    31   17   18 1
    32   17   32 1
    33   18   19 1
    34   18   20 am
    35   20   21 2
