@<TRIPOS>MOLECULE
ZINC09881614
   60    63     0     0     0
SMALL
USER_CHARGES
2-[[4-(4-fluorophenyl)-5-(1-piperidylmethyl)-1,2,4-triazol-3-yl]sulfanyl]-N-(2-nitrophenyl)-propanamide
@<TRIPOS>ATOM
      1 C1          1.6456    2.3427    1.4859 C.3       1 <0>        -0.1481
      2 C2          1.2735    1.9975    0.0426 C.3       1 <0>        -0.1180
      3 H1          1.1515    2.9164   -0.5309 H         1 <0>         0.1394
      4 C3         -0.0183    1.2215    0.0287 C.2       1 <0>         0.5440
      5 O1          0.0028    0.0090    0.0075 O.2       1 <0>        -0.4979
      6 N1         -1.1970    1.8750    0.0342 N.am      1 <0>        -0.6563
      7 C4         -2.3942    1.1594   -0.0778 C.ar      1 <0>         0.2113
      8 C5         -2.5127   -0.0947    0.5073 C.ar      1 <0>        -0.1257
      9 C6         -3.6972   -0.7963    0.3990 C.ar      1 <0>        -0.0435
     10 C7         -4.7612   -0.2561   -0.3001 C.ar      1 <0>        -0.1256
     11 C8         -4.6446    0.9897   -0.8882 C.ar      1 <0>        -0.0355
     12 C9         -3.4643    1.6989   -0.7790 C.ar      1 <0>        -0.0717
     13 N2         -3.3402    3.0324   -1.4093 N.pl3     1 <0>         0.0364
     14 O2         -4.3084    3.5485   -1.9383 O.2       1 <0>        -0.1371
     15 O3         -2.2699    3.6137   -1.3989 O.3       1 <0>        -0.1856
     16 S1          2.5873    0.9953   -0.6960 S.3       1 <0>         0.1179
     17 C10         3.9046    2.1656   -0.6907 C.2       1 <0>         0.1871
     18 N3          3.8497    3.4012   -0.2500 N.2       1 <0>        -0.2729
     19 N4          4.9925    3.9699   -0.3982 N.2       1 <0>        -0.2194
     20 C11         5.8401    3.1400   -0.9378 C.2       1 <0>         0.1033
     21 N5          5.1797    1.9572   -1.1393 N.pl3     1 <0>        -0.4040
     22 C12         5.7018    0.7782   -1.6930 C.ar      1 <0>         0.0657
     23 C13         6.7094    0.0878   -1.0337 C.ar      1 <0>        -0.0873
     24 C14         7.2188   -1.0750   -1.5777 C.ar      1 <0>        -0.1335
     25 C15         6.7322   -1.5465   -2.7854 C.ar      1 <0>         0.1394
     26 C16         5.7306   -0.8561   -3.4471 C.ar      1 <0>        -0.1262
     27 C17         5.2153    0.3042   -2.9034 C.ar      1 <0>        -0.0581
     28 F1          7.2354   -2.6811   -3.3189 F         1 <0>        -0.1166
     29 C18         7.2813    3.4268   -1.2723 C.3       1 <0>         0.1005
     30 C19         7.8459    3.9711    1.0179 C.3       1 <0>        -0.0072
     31 C20         8.6373    3.4990    2.2398 C.3       1 <0>        -0.1457
     32 C21        10.1329    3.5196    1.9122 C.3       1 <0>        -0.1391
     33 C22        10.3927    2.6302    0.6932 C.3       1 <0>        -0.1466
     34 C23         9.5504    3.1275   -0.4838 C.3       1 <0>        -0.0041
     35 H2          1.7675    1.4238    2.0594 H         1 <0>         0.0770
     36 H3          2.5799    2.9040    1.4960 H         1 <0>         0.0911
     37 H4          0.8544    2.9463    1.9307 H         1 <0>         0.0826
     38 H5         -1.2155    2.8414    0.1159 H         1 <0>         0.4288
     39 H6         -1.6809   -0.5189    1.0500 H         1 <0>         0.1621
     40 H7         -3.7914   -1.7698    0.8573 H         1 <0>         0.1513
     41 H8         -5.6850   -0.8088   -0.3872 H         1 <0>         0.1541
     42 H9         -5.4772    1.4087   -1.4338 H         1 <0>         0.1618
     43 H10         7.0920    0.4574   -0.0938 H         1 <0>         0.1267
     44 H11         7.9999   -1.6147   -1.0630 H         1 <0>         0.1580
     45 H12         5.3525   -1.2250   -4.3891 H         1 <0>         0.1605
     46 H13         4.4344    0.8426   -3.4199 H         1 <0>         0.1505
     47 H14         7.5807    2.8277   -2.1323 H         1 <0>         0.1474
     48 H15         7.3958    4.4846   -1.5088 H         1 <0>         0.1699
     49 H16         8.1383    4.9909    0.7678 H         1 <0>         0.1393
     50 H17         6.7798    3.9441    1.2431 H         1 <0>         0.1292
     51 H18         8.3354    2.4842    2.4989 H         1 <0>         0.0832
     52 H19         8.4397    4.1640    3.0805 H         1 <0>         0.1153
     53 H20        10.6977    3.1429    2.7650 H         1 <0>         0.0957
     54 H21        10.4433    4.5407    1.6909 H         1 <0>         0.0853
     55 H22        10.1184    1.6017    0.9280 H         1 <0>         0.0858
     56 H23        11.4493    2.6744    0.4290 H         1 <0>         0.1167
     57 H24         9.7223    2.4877   -1.3493 H         1 <0>         0.1305
     58 H25         9.8349    4.1513   -0.7269 H         1 <0>         0.1387
     59 N6          8.1207    3.0599   -0.1132 N.4       1 <0>        -0.3970
     60 H26         7.8954    2.0992    0.1708 H         1 <0>         0.4155
@<TRIPOS>BOND
     1    1    2 1
     2    1   35 1
     3    1   36 1
     4    1   37 1
     5    2    3 1
     6    2    4 1
     7    2   16 1
     8    4    5 2
     9    4    6 am
    10    6    7 1
    11    6   38 1
    12    7   12 ar
    13    7    8 ar
    14    8    9 ar
    15    8   39 1
    16    9   10 ar
    17    9   40 1
    18   10   11 ar
    19   10   41 1
    20   11   12 ar
    21   11   42 1
    22   12   13 1
    23   13   14 2
    24   13   15 1
    25   16   17 1
    26   17   21 1
    27   17   18 2
    28   18   19 1
    29   19   20 2
    30   20   21 1
    31   20   29 1
    32   21   22 1
    33   22   27 ar
    34   22   23 ar
    35   23   24 ar
    36   23   43 1
    37   24   25 ar
    38   24   44 1
    39   25   26 ar
    40   25   28 1
    41   26   27 ar
    42   26   45 1
    43   27   46 1
    44   29   47 1
    45   29   48 1
    46   29   59 1
    47   30   31 1
    48   30   49 1
    49   30   50 1
    50   30   59 1
    51   31   32 1
    52   31   51 1
    53   31   52 1
    54   32   33 1
    55   32   53 1
    56   32   54 1
    57   33   34 1
    58   33   55 1
    59   33   56 1
    60   34   57 1
    61   34   58 1
    62   34   59 1
    63   59   60 1
