@<TRIPOS>MOLECULE
ZINC40318492
   66    68     0     0     0
SMALL
USER_CHARGES

@<TRIPOS>ATOM
      1 C1          5.8735   -0.0325    0.5082 C.3       1 <0>         0.0185
      2 O1          4.7650   -0.8632    0.8592 O.3       1 <0>        -0.2888
      3 C2          3.6732   -0.8105    0.0501 C.ar      1 <0>         0.1687
      4 C3          3.6720    0.0191   -1.0610 C.ar      1 <0>        -0.2494
      5 C4          2.5628    0.0735   -1.8841 C.ar      1 <0>        -0.0679
      6 C5          1.4508   -0.6982   -1.6035 C.ar      1 <0>        -0.2191
      7 C6          1.4440   -1.5304   -0.4943 C.ar      1 <0>         0.1665
      8 C7          2.5594   -1.5922    0.3325 C.ar      1 <0>         0.0555
      9 O2          2.5588   -2.4119    1.4189 O.3       1 <0>        -0.3101
     10 C8          2.0779   -1.8613    2.6468 C.3       1 <0>         0.0345
     11 O3          0.3493   -2.2889   -0.2188 O.3       1 <0>        -0.2897
     12 C9         -0.7585   -2.1787   -1.1148 C.3       1 <0>         0.0188
     13 C10         2.5656    0.9768   -3.0903 C.3       1 <0>         0.0369
     14 N1          3.7740    0.7260   -3.8871 N.4       1 <0>        -0.3697
     15 C11         3.9100    1.7694   -4.9121 C.3       1 <0>        -0.0480
     16 C12         5.3787    2.1825   -5.0277 C.3       1 <0>         0.0857
     17 H1          5.7593    2.4507   -4.0422 H         1 <0>         0.1350
     18 C13         5.4978    3.3857   -5.9652 C.3       1 <0>         0.0288
     19 O4          6.8512    3.8440   -5.9825 O.3       1 <0>        -0.3004
     20 C14         7.1301    4.9146   -6.7718 C.ar      1 <0>         0.1051
     21 C15         6.1182    5.5147   -7.5101 C.ar      1 <0>        -0.1775
     22 C16         6.3944    6.6048   -8.3150 C.ar      1 <0>        -0.0906
     23 C17         7.6778    7.1044   -8.3913 C.ar      1 <0>        -0.0890
     24 C18         8.7040    6.5078   -7.6522 C.ar      1 <0>        -0.1470
     25 C19         8.4209    5.4095   -6.8348 C.ar      1 <0>        -0.0952
     26 C20        10.0752    7.0369   -7.7306 C.2       1 <0>         0.3791
     27 O5         10.3170    7.9921   -8.4372 O.2       1 <0>        -0.4434
     28 O6          6.1401    1.0928   -5.5521 O.3       1 <0>        -0.5371
     29 C21         3.6685   -0.5875   -4.5364 C.3       1 <0>         0.0241
     30 H2          2.9384   -0.5410   -5.3444 H         1 <0>         0.1608
     31 C22         3.2359   -1.6432   -3.5055 C.3       1 <0>        -0.1713
     32 C23         3.4307   -3.0629   -4.0905 C.3       1 <0>        -0.5746
     33 S1          4.8135   -2.8236   -5.2793 S.o2      1 <0>         2.3764
     34 O7          4.3481   -3.1045   -6.5922 O.2       1 <0>        -0.9094
     35 O8          5.9666   -3.4931   -4.7880 O.2       1 <0>        -0.9037
     36 C24         5.0548   -1.0055   -5.1046 C.3       1 <0>        -0.6110
     37 H3          6.2314   -0.3046   -0.4848 H         1 <0>         0.0589
     38 H4          5.5594    1.0113    0.5077 H         1 <0>         0.0614
     39 H5          6.6751   -0.1704    1.2338 H         1 <0>         0.1155
     40 H6          4.5387    0.6239   -1.2835 H         1 <0>         0.1370
     41 H7          0.5860   -0.6527   -2.2488 H         1 <0>         0.1505
     42 H8          2.6919   -1.0051    2.9262 H         1 <0>         0.0495
     43 H9          1.0436   -1.5411    2.5209 H         1 <0>         0.0499
     44 H10         2.1313   -2.6177    3.4297 H         1 <0>         0.1034
     45 H11        -0.4452   -2.4698   -2.1174 H         1 <0>         0.0612
     46 H12        -1.5626   -2.8343   -0.7806 H         1 <0>         0.1140
     47 H13        -1.1125   -1.1479   -1.1297 H         1 <0>         0.0626
     48 H14         1.6824    0.7760   -3.6967 H         1 <0>         0.1461
     49 H15         2.5543    2.0171   -2.7652 H         1 <0>         0.1514
     50 H16         3.5645    1.3838   -5.8713 H         1 <0>         0.1447
     51 H17         3.3102    2.6351   -4.6312 H         1 <0>         0.1516
     52 H18         5.2006    3.0926   -6.9721 H         1 <0>         0.0795
     53 H19         4.8476    4.1865   -5.6131 H         1 <0>         0.0833
     54 H20         5.1113    5.1281   -7.4555 H         1 <0>         0.1288
     55 H21         5.6025    7.0662   -8.8863 H         1 <0>         0.1360
     56 H22         7.8899    7.9554   -9.0216 H         1 <0>         0.1401
     57 H23         9.2076    4.9464   -6.2577 H         1 <0>         0.1440
     58 H24        10.8660    6.5743   -7.1587 H         1 <0>         0.1138
     59 H25         5.9235    0.8658   -6.4667 H         1 <0>         0.3900
     60 H26         3.8395   -1.5373   -2.6040 H         1 <0>         0.1145
     61 H27         2.1852   -1.4958   -3.2557 H         1 <0>         0.1341
     62 H28         3.7113   -3.7681   -3.3081 H         1 <0>         0.1593
     63 H29         2.5301   -3.3950   -4.6069 H         1 <0>         0.1530
     64 H30         5.2418   -0.5382   -6.0714 H         1 <0>         0.1677
     65 H31         5.8543   -0.7799   -4.3989 H         1 <0>         0.1703
     66 H32         4.5831    0.7392   -3.2843 H         1 <0>         0.4267
@<TRIPOS>BOND
     1    1    2 1
     2    1   37 1
     3    1   38 1
     4    1   39 1
     5    2    3 1
     6    3    8 ar
     7    3    4 ar
     8    4    5 ar
     9    4   40 1
    10    5    6 ar
    11    5   13 1
    12    6    7 ar
    13    6   41 1
    14    7    8 ar
    15    7   11 1
    16    8    9 1
    17    9   10 1
    18   10   42 1
    19   10   43 1
    20   10   44 1
    21   11   12 1
    22   12   45 1
    23   12   46 1
    24   12   47 1
    25   13   14 1
    26   13   48 1
    27   13   49 1
    28   14   15 1
    29   14   29 1
    30   14   66 1
    31   15   16 1
    32   15   50 1
    33   15   51 1
    34   16   17 1
    35   16   18 1
    36   16   28 1
    37   18   19 1
    38   18   52 1
    39   18   53 1
    40   19   20 1
    41   20   25 ar
    42   20   21 ar
    43   21   22 ar
    44   21   54 1
    45   22   23 ar
    46   22   55 1
    47   23   24 ar
    48   23   56 1
    49   24   25 ar
    50   24   26 1
    51   25   57 1
    52   26   27 2
    53   26   58 1
    54   28   59 1
    55   29   30 1
    56   29   36 1
    57   29   31 1
    58   31   32 1
    59   31   60 1
    60   31   61 1
    61   32   33 1
    62   32   62 1
    63   32   63 1
    64   33   34 2
    65   33   35 2
    66   33   36 1
    67   36   64 1
    68   36   65 1
