@<TRIPOS>MOLECULE
ZINC53856460
   35    37     0     0     0
SMALL
USER_CHARGES

@<TRIPOS>ATOM
      1 C1         -0.0125    1.3899   -0.1875 C.ar      1 <0>        -0.0189
      2 C2          1.1729    2.0907   -0.1885 C.ar      1 <0>        -0.1305
      3 C3          2.3795    1.4196   -0.0192 C.ar      1 <0>         0.2081
      4 C4          2.3932    0.0393    0.1517 C.ar      1 <0>        -0.1515
      5 C5          1.2115   -0.6677    0.1532 C.ar      1 <0>        -0.0607
      6 C6         -0.0023    0.0032   -0.0162 C.ar      1 <0>        -0.1118
      7 C7         -1.2712   -0.7513   -0.0141 C.2       1 <0>         0.4828
      8 N1         -1.2235   -2.1075    0.1619 N.am      1 <0>        -0.6493
      9 H1         -0.3677   -2.5484    0.2808 H         1 <0>         0.4236
     10 C8         -2.3632   -2.8375    0.1713 C.2       1 <0>         0.5610
     11 O1         -2.3390   -4.0444    0.3274 O.2       1 <0>        -0.4901
     12 C9         -3.6315   -2.1174   -0.0136 C.ar      1 <0>        -0.2181
     13 C10        -4.8584   -2.7784   -0.0188 C.ar      1 <0>         0.0390
     14 C11        -6.0168   -2.0535   -0.1958 C.ar      1 <0>        -0.0799
     15 C12        -5.9691   -0.6761   -0.3685 C.ar      1 <0>        -0.0135
     16 C13        -4.7773   -0.0082   -0.3667 C.ar      1 <0>        -0.1102
     17 C14        -3.5845   -0.7155   -0.1889 C.ar      1 <0>         0.2217
     18 N2         -2.3901   -0.0910   -0.1754 N.2       1 <0>        -0.5261
     19 N3         -7.3236   -2.7489   -0.2025 N.pl3     1 <0>         0.0368
     20 O2         -7.3712   -3.9476   -0.0531 O.2       1 <0>        -0.1573
     21 O3         -8.3433   -2.1180   -0.3574 O.3       1 <0>        -0.1531
     22 N4          3.5791    2.1329   -0.0211 N.am      1 <0>        -0.6858
     23 C15         3.6200    3.3842    0.4781 C.2       1 <0>         0.7055
     24 O4          2.6377    3.8559    1.0174 O.2       1 <0>        -0.5682
     25 N5          4.7497    4.1125    0.3795 N.am      1 <0>        -0.8572
     26 H2         -0.9493    1.9121   -0.3146 H         1 <0>         0.1511
     27 H3          1.1658    3.1624   -0.3212 H         1 <0>         0.1488
     28 H4          3.3318   -0.4786    0.2829 H         1 <0>         0.1390
     29 H5          1.2230   -1.7396    0.2852 H         1 <0>         0.1308
     30 H6         -4.9009   -3.8493    0.1143 H         1 <0>         0.1679
     31 H7         -6.8877   -0.1251   -0.5066 H         1 <0>         0.1648
     32 H8         -4.7567    1.0631   -0.5018 H         1 <0>         0.1653
     33 H9          4.3835    1.7282   -0.3818 H         1 <0>         0.4124
     34 H10         5.5334    3.7362   -0.0508 H         1 <0>         0.4011
     35 H11         4.7791    5.0130    0.7388 H         1 <0>         0.4223
@<TRIPOS>BOND
     1    1    6 ar
     2    1    2 ar
     3    1   26 1
     4    2    3 ar
     5    2   27 1
     6    3    4 ar
     7    3   22 1
     8    4    5 ar
     9    4   28 1
    10    5    6 ar
    11    5   29 1
    12    6    7 1
    13    7   18 2
    14    7    8 1
    15    8    9 1
    16    8   10 am
    17   10   11 2
    18   10   12 1
    19   12   17 ar
    20   12   13 ar
    21   13   14 ar
    22   13   30 1
    23   14   15 ar
    24   14   19 1
    25   15   16 ar
    26   15   31 1
    27   16   17 ar
    28   16   32 1
    29   17   18 1
    30   19   20 2
    31   19   21 1
    32   22   23 am
    33   22   33 1
    34   23   24 2
    35   23   25 am
    36   25   34 1
    37   25   35 1
