@<TRIPOS>MOLECULE
ZINC08820719
   37    40     0     0     0
SMALL
USER_CHARGES

@<TRIPOS>ATOM
      1 C1          0.6416    0.2636   -1.1995 C.ar      1 <0>        -0.0904
      2 C2          1.8266    0.9741   -1.2079 C.ar      1 <0>        -0.1005
      3 C3          2.3826    1.4127   -0.0136 C.ar      1 <0>         0.1120
      4 C4          1.7465    1.1372    1.1885 C.ar      1 <0>        -0.1199
      5 C5          0.5578    0.4247    1.1931 C.ar      1 <0>         0.1193
      6 C6          0.0067   -0.0118   -0.0037 C.ar      1 <0>        -0.1236
      7 O1         -0.0674    0.1528    2.3687 O.3       1 <0>        -0.4930
      8 N1          3.5852    2.1327   -0.0221 N.am      1 <0>        -0.5341
      9 C7          3.5472    3.4517   -0.1108 C.2       1 <0>         0.5576
     10 O2          2.4963    4.0588   -0.1849 O.2       1 <0>        -0.4465
     11 C8          4.8562    4.1511   -0.1145 C.2       1 <0>        -0.1830
     12 C9          5.1242    5.4595   -0.1925 C.2       1 <0>         0.0377
     13 C10         6.5530    5.9382   -0.1777 C.3       1 <0>        -0.0605
     14 H1          7.2366    5.0941   -0.0870 H         1 <0>         0.1403
     15 C11         6.8577    6.7345   -1.4256 C.ar      1 <0>        -0.1379
     16 C12         6.8463    6.4165   -2.7651 C.ar      1 <0>        -0.0251
     17 C13         7.1803    7.3765   -3.7055 C.ar      1 <0>        -0.1138
     18 C14         7.5242    8.6522   -3.2940 C.ar      1 <0>        -0.0440
     19 C15         7.5366    8.9724   -1.9524 C.ar      1 <0>        -0.1294
     20 C16         7.2012    8.0114   -1.0004 C.ar      1 <0>         0.1694
     21 N2          7.1403    8.0889    0.3918 N.am      1 <0>        -0.6556
     22 C17         6.7713    6.9214    0.9526 C.2       1 <0>         0.5437
     23 O3          6.6378    6.6985    2.1373 O.2       1 <0>        -0.4708
     24 Br1         7.1670    6.9453   -5.5467 Br        1 <0>        -0.0335
     25 S1          5.9762    2.7637    0.0139 S.3       1 <0>        -0.0428
     26 C18         4.7527    1.4644    0.0657 C.2       1 <0>         0.5551
     27 O4          4.9300    0.2648    0.1567 O.2       1 <0>        -0.3945
     28 H2          0.2085   -0.0733   -2.1298 H         1 <0>         0.1417
     29 H3          2.3209    1.1881   -2.1440 H         1 <0>         0.1321
     30 H4          2.1772    1.4770    2.1187 H         1 <0>         0.1346
     31 H5         -0.9195   -0.5674   -0.0002 H         1 <0>         0.1401
     32 H6         -0.7014    0.8295    2.6428 H         1 <0>         0.3962
     33 H7          4.3165    6.1727   -0.2661 H         1 <0>         0.1649
     34 H8          6.5776    5.4196   -3.0820 H         1 <0>         0.1427
     35 H9          7.7847    9.4010   -4.0273 H         1 <0>         0.1463
     36 H10         7.8068    9.9699   -1.6390 H         1 <0>         0.1423
     37 H11         7.3422    8.8914    0.8980 H         1 <0>         0.4229
@<TRIPOS>BOND
     1    1    6 ar
     2    1    2 ar
     3    1   28 1
     4    2    3 ar
     5    2   29 1
     6    3    4 ar
     7    3    8 1
     8    4    5 ar
     9    4   30 1
    10    5    6 ar
    11    5    7 1
    12    6   31 1
    13    7   32 1
    14    8   26 am
    15    8    9 am
    16    9   10 2
    17    9   11 1
    18   11   12 2
    19   11   25 1
    20   12   13 1
    21   12   33 1
    22   13   14 1
    23   13   22 1
    24   13   15 1
    25   15   20 ar
    26   15   16 ar
    27   16   17 ar
    28   16   34 1
    29   17   18 ar
    30   17   24 1
    31   18   19 ar
    32   18   35 1
    33   19   20 ar
    34   19   36 1
    35   20   21 1
    36   21   22 am
    37   21   37 1
    38   22   23 2
    39   25   26 1
    40   26   27 2
