@<TRIPOS>MOLECULE
ZINC05207416
   42    45     0     0     0
SMALL
USER_CHARGES

@<TRIPOS>ATOM
      1 C1         -0.1168    1.3371    0.0190 C.ar      1 <0>        -0.1012
      2 C2          1.0618    2.0716    0.0125 C.ar      1 <0>        -0.0834
      3 C3          2.2852    1.4411   -0.0035 C.ar      1 <0>        -0.0690
      4 C4          2.3455    0.0451   -0.0129 C.ar      1 <0>         0.0588
      5 C5          1.1451   -0.6980   -0.0058 C.ar      1 <0>        -0.1514
      6 C6         -0.0835   -0.0400    0.0100 C.ar      1 <0>        -0.0520
      7 C7          1.2351   -2.1661   -0.0160 C.2       1 <0>         0.5271
      8 O1          0.2358   -2.8614   -0.0110 O.2       1 <0>        -0.5000
      9 N1          2.4733   -2.7137   -0.0317 N.am      1 <0>        -0.4540
     10 N2          3.6029   -1.8911   -0.0371 N.2       1 <0>         0.0872
     11 N3          3.5333   -0.6094   -0.0291 N.2       1 <0>        -0.2013
     12 C8          2.6291   -4.1703   -0.0425 C.3       1 <0>         0.1211
     13 C9          2.6691   -4.6682   -1.4887 C.3       1 <0>        -0.1229
     14 C10         2.8318   -6.1895   -1.4999 C.3       1 <0>        -0.1083
     15 C11         2.8712   -6.6799   -2.9244 C.2       1 <0>         0.5058
     16 O2          2.7782   -5.8884   -3.8426 O.2       1 <0>        -0.5889
     17 N4          3.0078   -7.9780   -3.1769 N.2       1 <0>        -0.6705
     18 C12         2.9379   -8.4231   -4.4287 C.2       1 <0>         0.6533
     19 N5          2.8470   -7.6427   -5.5376 N.pl3     1 <0>        -0.6083
     20 H1          2.8220   -6.6731   -5.5496 H         1 <0>         0.4504
     21 C13         2.7964   -8.4731   -6.6524 C.ar      1 <0>         0.0780
     22 C14         2.7030   -8.2256   -8.0144 C.ar      1 <0>        -0.0997
     23 C15         2.6729   -9.2805   -8.9048 C.ar      1 <0>        -0.1016
     24 C16         2.7354  -10.5847   -8.4446 C.ar      1 <0>        -0.1038
     25 C17         2.8279  -10.8419   -7.0911 C.ar      1 <0>        -0.0975
     26 C18         2.8594   -9.7890   -6.1881 C.ar      1 <0>         0.0815
     27 N6          2.9521   -9.7298   -4.8013 N.pl3     1 <0>        -0.5904
     28 H2         -1.0673    1.8497    0.0358 H         1 <0>         0.1427
     29 H3          1.0179    3.1507    0.0198 H         1 <0>         0.1443
     30 H4          3.1949    2.0231   -0.0090 H         1 <0>         0.1508
     31 H5         -1.0032   -0.6061    0.0154 H         1 <0>         0.1466
     32 H6          3.5576   -4.4402    0.4605 H         1 <0>         0.1043
     33 H7          1.7879   -4.6295    0.4767 H         1 <0>         0.1042
     34 H8          1.7406   -4.3983   -1.9917 H         1 <0>         0.0736
     35 H9          3.5104   -4.2090   -2.0079 H         1 <0>         0.0779
     36 H10         3.7603   -6.4594   -0.9969 H         1 <0>         0.1015
     37 H11         1.9906   -6.6487   -0.9807 H         1 <0>         0.0997
     38 H12         3.0143  -10.4907   -4.2030 H         1 <0>         0.4461
     39 H13         2.6537   -7.2096   -8.3775 H         1 <0>         0.1349
     40 H14         2.5999   -9.0874   -9.9649 H         1 <0>         0.1386
     41 H15         2.7112  -11.4045   -9.1472 H         1 <0>         0.1393
     42 H16         2.8758  -11.8608   -6.7361 H         1 <0>         0.1367
@<TRIPOS>BOND
     1    1    6 ar
     2    1    2 ar
     3    1   28 1
     4    2    3 ar
     5    2   29 1
     6    3    4 ar
     7    3   30 1
     8    4   11 1
     9    4    5 ar
    10    5    6 ar
    11    5    7 1
    12    6   31 1
    13    7    8 2
    14    7    9 am
    15    9   10 1
    16    9   12 1
    17   10   11 2
    18   12   13 1
    19   12   32 1
    20   12   33 1
    21   13   14 1
    22   13   34 1
    23   13   35 1
    24   14   15 1
    25   14   36 1
    26   14   37 1
    27   15   16 2
    28   15   17 1
    29   17   18 2
    30   18   27 1
    31   18   19 1
    32   19   21 1
    33   19   20 1
    34   21   22 ar
    35   21   26 ar
    36   22   23 ar
    37   22   39 1
    38   23   24 ar
    39   23   40 1
    40   24   25 ar
    41   24   41 1
    42   25   26 ar
    43   25   42 1
    44   26   27 1
    45   27   38 1
