@<TRIPOS>MOLECULE
ZINC56157738
   44    46     0     0     0
SMALL
USER_CHARGES

@<TRIPOS>ATOM
      1 C1         -0.0644    1.6097    0.2981 C.3       1 <0>        -0.1705
      2 C2         -0.0528    0.0799    0.2769 C.3       1 <0>         0.1386
      3 H1          0.4859   -0.2915    1.1487 H         1 <0>         0.1133
      4 C3          0.6304   -0.4000   -0.9777 C.2       1 <0>         0.5143
      5 O1          0.0264   -1.0910   -1.7708 O.2       1 <0>        -0.5045
      6 N1          1.9124   -0.0613   -1.2186 N.am      1 <0>        -0.6631
      7 C4          2.5842   -0.6015   -2.3236 C.ar      1 <0>         0.1087
      8 C5          2.1765   -1.8150   -2.8598 C.ar      1 <0>        -0.0760
      9 C6          2.8397   -2.3461   -3.9490 C.ar      1 <0>        -0.1378
     10 C7          3.9113   -1.6692   -4.5069 C.ar      1 <0>         0.1140
     11 C8          4.3213   -0.4587   -3.9746 C.ar      1 <0>        -0.1689
     12 C9          3.6565    0.0801   -2.8880 C.ar      1 <0>         0.0998
     13 F1          4.0524    1.2642   -2.3720 F         1 <0>        -0.1279
     14 F2          4.5579   -2.1912   -5.5721 F         1 <0>        -0.1291
     15 N2         -1.4299   -0.4193    0.3045 N.pl3     1 <0>        -0.7284
     16 C10        -2.0920   -0.5746    1.5245 C.ar      1 <0>         0.2457
     17 C11        -1.4473   -0.2504    2.7123 C.ar      1 <0>        -0.2266
     18 C12        -2.1018   -0.4034    3.9190 C.ar      1 <0>        -0.0429
     19 C13        -3.3987   -0.8793    3.9495 C.ar      1 <0>        -0.2151
     20 C14        -4.0486   -1.2056    2.7661 C.ar      1 <0>         0.2345
     21 C15        -3.3963   -1.0474    1.5516 C.ar      1 <0>        -0.2269
     22 N3         -5.3618   -1.6880    2.7981 N.am      1 <0>        -0.5699
     23 C16        -6.2040   -1.7873    3.9995 C.3       1 <0>         0.0856
     24 C17        -7.5290   -2.3733    3.4743 C.3       1 <0>         0.0909
     25 N4         -7.2927   -2.5419    2.0327 N.am      1 <0>        -0.7368
     26 C18        -6.0534   -2.1273    1.7384 C.2       1 <0>         0.6988
     27 O2         -5.5963   -2.1513    0.6120 O.2       1 <0>        -0.5632
     28 H2          0.9602    1.9811    0.2775 H         1 <0>         0.0702
     29 H3         -0.6031    1.9811   -0.5737 H         1 <0>         0.0687
     30 H4         -0.5585    1.9568    1.2055 H         1 <0>         0.0810
     31 H5          2.3702    0.5564   -0.6271 H         1 <0>         0.4181
     32 H6          1.3411   -2.3440   -2.4254 H         1 <0>         0.1656
     33 H7          2.5224   -3.2905   -4.3657 H         1 <0>         0.1489
     34 H8          5.1575    0.0674   -4.4110 H         1 <0>         0.1545
     35 H9         -1.8818   -0.6420   -0.5244 H         1 <0>         0.4119
     36 H10        -0.4334    0.1212    2.6918 H         1 <0>         0.1209
     37 H11        -1.5987   -0.1507    4.8407 H         1 <0>         0.1265
     38 H12        -3.9076   -0.9981    4.8947 H         1 <0>         0.1211
     39 H13        -3.9012   -1.2959    0.6298 H         1 <0>         0.1576
     40 H14        -5.7516   -2.4586    4.7295 H         1 <0>         0.0929
     41 H15        -6.3675   -0.8014    4.4347 H         1 <0>         0.0929
     42 H16        -7.7345   -3.3354    3.9434 H         1 <0>         0.0892
     43 H17        -8.3504   -1.6783    3.6486 H         1 <0>         0.0890
     44 H18        -7.9339   -2.8936    1.3954 H         1 <0>         0.4343
@<TRIPOS>BOND
     1    1    2 1
     2    1   28 1
     3    1   29 1
     4    1   30 1
     5    2    3 1
     6    2    4 1
     7    2   15 1
     8    4    5 2
     9    4    6 am
    10    6    7 1
    11    6   31 1
    12    7   12 ar
    13    7    8 ar
    14    8    9 ar
    15    8   32 1
    16    9   10 ar
    17    9   33 1
    18   10   11 ar
    19   10   14 1
    20   11   12 ar
    21   11   34 1
    22   12   13 1
    23   15   16 1
    24   15   35 1
    25   16   21 ar
    26   16   17 ar
    27   17   18 ar
    28   17   36 1
    29   18   19 ar
    30   18   37 1
    31   19   20 ar
    32   19   38 1
    33   20   21 ar
    34   20   22 1
    35   21   39 1
    36   22   26 am
    37   22   23 1
    38   23   24 1
    39   23   40 1
    40   23   41 1
    41   24   25 1
    42   24   42 1
    43   24   43 1
    44   25   26 am
    45   25   44 1
    46   26   27 2
