@<TRIPOS>MOLECULE
ZINC05906947
   51    54     0     0     0
SMALL
USER_CHARGES
5-(6,7-dimethoxy-1,2,3,4-tetrahydroisoquinolin-1-yl)-1-(4-fluorophenyl)-6-hydroxy-pyrimidine-2,4-dione
@<TRIPOS>ATOM
      1 C1         -2.2178   -1.4368    2.3161 C.3       1 <0>         0.0214
      2 O1         -2.1194   -0.0114    2.2931 O.3       1 <0>        -0.2975
      3 C2         -0.9797    0.5205    1.7757 C.ar      1 <0>         0.1320
      4 C3          0.0210   -0.3085    1.3004 C.ar      1 <0>        -0.1667
      5 C4          1.1851    0.2290    0.7718 C.ar      1 <0>        -0.0722
      6 C5          1.3476    1.5972    0.7137 C.ar      1 <0>        -0.1119
      7 C6          0.3477    2.4323    1.1907 C.ar      1 <0>        -0.1441
      8 C7         -0.8145    1.9012    1.7212 C.ar      1 <0>         0.1126
      9 O2         -1.7934    2.7249    2.1823 O.3       1 <0>        -0.2958
     10 C8         -1.5533    4.1308    2.0940 C.3       1 <0>         0.0248
     11 C9          2.5895    2.2258    0.1374 C.3       1 <0>         0.1966
     12 H1          2.3758    2.5901   -0.8675 H         1 <0>         0.1554
     13 C10         3.2338    0.0318   -0.6241 C.3       1 <0>         0.0028
     14 C11         2.2507   -0.7155    0.2772 C.3       1 <0>        -0.1032
     15 C12         3.0120    3.3819    1.0069 C.2       1 <0>        -0.3911
     16 C13         3.4367    3.1615    2.3293 C.2       1 <0>         0.5803
     17 O3          3.4664    2.0308    2.7838 O.2       1 <0>        -0.5115
     18 N1          3.8111    4.2086    3.0907 N.am      1 <0>        -0.6558
     19 H2          4.1132    4.0551    4.0315 H         1 <0>         0.4532
     20 C14         3.7815    5.4590    2.5947 C.2       1 <0>         0.7048
     21 O4          4.1235    6.3904    3.2975 O.2       1 <0>        -0.4835
     22 N2          3.3784    5.6940    1.3325 N.am      1 <0>        -0.5003
     23 C15         2.9934    4.6552    0.5207 C.2       1 <0>         0.4799
     24 O5          2.5949    4.8938   -0.7470 O.3       1 <0>        -0.4289
     25 C16         3.3573    7.0069    0.8411 C.ar      1 <0>         0.0375
     26 C17         2.2093    7.7776    0.9664 C.ar      1 <0>        -0.0541
     27 C18         2.1920    9.0723    0.4859 C.ar      1 <0>        -0.1406
     28 C19         3.3153    9.5983   -0.1299 C.ar      1 <0>         0.1484
     29 C20         4.4595    8.8294   -0.2605 C.ar      1 <0>        -0.1413
     30 C21         4.4824    7.5361    0.2234 C.ar      1 <0>        -0.0555
     31 F1          3.2949   10.8635   -0.6035 F         1 <0>        -0.1176
     32 H3         -2.1505   -1.8221    1.2987 H         1 <0>         0.0603
     33 H4         -1.4048   -1.8476    2.9148 H         1 <0>         0.0601
     34 H5         -3.1733   -1.7280    2.7524 H         1 <0>         0.1098
     35 H6         -0.1052   -1.3803    1.3411 H         1 <0>         0.1468
     36 H7          0.4771    3.5036    1.1472 H         1 <0>         0.1341
     37 H8         -0.6626    4.3841    2.6688 H         1 <0>         0.0510
     38 H9         -1.4038    4.4090    1.0507 H         1 <0>         0.0566
     39 H10        -2.4105    4.6717    2.4949 H         1 <0>         0.1099
     40 H11         2.7397    0.3068   -1.5560 H         1 <0>         0.1337
     41 H12         4.0934   -0.6030   -0.8389 H         1 <0>         0.1408
     42 H13         2.7870   -1.1338    1.1290 H         1 <0>         0.1052
     43 H14         1.7847   -1.5232   -0.2871 H         1 <0>         0.1218
     44 H15         2.6904    5.8159   -1.0224 H         1 <0>         0.4282
     45 H16         1.3318    7.3663    1.4429 H         1 <0>         0.1450
     46 H17         1.3006    9.6736    0.5872 H         1 <0>         0.1577
     47 H18         5.3347    9.2415   -0.7408 H         1 <0>         0.1577
     48 H19         5.3751    6.9368    0.1217 H         1 <0>         0.1458
     49 N3          3.6843    1.2476    0.0784 N.4       1 <0>        -0.5142
     50 H20         3.9733    1.0022    1.0326 H         1 <0>         0.4392
     51 H21         4.4798    1.6570   -0.4254 H         1 <0>         0.4323
@<TRIPOS>BOND
     1    1    2 1
     2    1   32 1
     3    1   33 1
     4    1   34 1
     5    2    3 1
     6    3    8 ar
     7    3    4 ar
     8    4    5 ar
     9    4   35 1
    10    5   14 1
    11    5    6 ar
    12    6    7 ar
    13    6   11 1
    14    7    8 ar
    15    7   36 1
    16    8    9 1
    17    9   10 1
    18   10   37 1
    19   10   38 1
    20   10   39 1
    21   11   12 1
    22   11   15 1
    23   11   49 1
    24   13   14 1
    25   13   40 1
    26   13   41 1
    27   13   49 1
    28   14   42 1
    29   14   43 1
    30   15   23 2
    31   15   16 1
    32   16   17 2
    33   16   18 am
    34   18   19 1
    35   18   20 am
    36   20   21 2
    37   20   22 am
    38   22   23 1
    39   22   25 1
    40   23   24 1
    41   24   44 1
    42   25   30 ar
    43   25   26 ar
    44   26   27 ar
    45   26   45 1
    46   27   28 ar
    47   27   46 1
    48   28   29 ar
    49   28   31 1
    50   29   30 ar
    51   29   47 1
    52   30   48 1
    53   49   50 1
    54   49   51 1
