@<TRIPOS>MOLECULE
ZINC08312460
   53    56     0     0     0
SMALL
USER_CHARGES
2,3-dimethyl-N-(3-morpholinosulfonylphenyl)-2,3-dihydrobenzofuran-7-carboxamide
@<TRIPOS>ATOM
      1 C1         -2.0636    3.0116    3.7436 C.3       1 <0>        -0.1413
      2 C2         -1.9205    3.7111    2.3904 C.3       1 <0>        -0.0773
      3 H1         -2.8902    3.8184    1.9044 H         1 <0>         0.1012
      4 C3         -0.9453    2.9688    1.4968 C.ar      1 <0>        -0.1794
      5 C4         -1.0685    1.8183    0.7501 C.ar      1 <0>        -0.0354
      6 C5         -0.0030    1.3583   -0.0076 C.ar      1 <0>        -0.1556
      7 C6          1.1869    2.0538   -0.0162 C.ar      1 <0>        -0.0522
      8 C7          1.3240    3.2185    0.7393 C.ar      1 <0>        -0.1671
      9 C8          0.2445    3.6839    1.5122 C.ar      1 <0>         0.1799
     10 O1          0.1585    4.7680    2.3266 O.3       1 <0>        -0.2709
     11 C9         -1.2264    5.0847    2.5487 C.3       1 <0>         0.0735
     12 H2         -1.5868    5.7884    1.7984 H         1 <0>         0.0912
     13 C10        -1.4356    5.6433    3.9576 C.3       1 <0>        -0.1534
     14 C11         2.5986    3.9608    0.7277 C.2       1 <0>         0.5569
     15 O2          2.7170    4.9760    1.3866 O.2       1 <0>        -0.4929
     16 N1          3.6320    3.5140   -0.0131 N.am      1 <0>        -0.6751
     17 C12         4.8017    4.2742   -0.1122 C.ar      1 <0>         0.1340
     18 C13         6.0337    3.6436   -0.2311 C.ar      1 <0>        -0.0911
     19 C14         7.1867    4.3972   -0.3292 C.ar      1 <0>        -0.1154
     20 C15         7.1157    5.7783   -0.3097 C.ar      1 <0>        -0.0387
     21 C16         5.8910    6.4090   -0.1916 C.ar      1 <0>        -0.6577
     22 C17         4.7335    5.6611   -0.0979 C.ar      1 <0>        -0.0237
     23 S1          5.8061    8.1688   -0.1673 S.o2      1 <0>         2.6887
     24 O3          4.5981    8.5080    0.4998 O.2       1 <0>        -0.9427
     25 O4          7.0755    8.6305    0.2739 O.2       1 <0>        -0.9494
     26 N2          5.6382    8.6726   -1.7358 N.pl3     1 <0>        -1.0009
     27 C18         6.8161    8.9710   -2.5658 C.3       1 <0>         0.0851
     28 C19         6.6710    8.2115   -3.8943 C.3       1 <0>         0.0467
     29 O5          5.3971    8.5119   -4.4695 O.3       1 <0>        -0.3745
     30 C20         4.2836    8.0929   -3.6768 C.3       1 <0>         0.0476
     31 C21         4.3065    8.8409   -2.3389 C.3       1 <0>         0.0849
     32 H3         -1.0884    2.9526    4.2270 H         1 <0>         0.0613
     33 H4         -2.7484    3.5780    4.3748 H         1 <0>         0.0696
     34 H5         -2.4559    2.0059    3.5930 H         1 <0>         0.0624
     35 H6         -1.9999    1.2715    0.7552 H         1 <0>         0.1323
     36 H7         -0.1036    0.4529   -0.5876 H         1 <0>         0.1376
     37 H8          2.0155    1.6961   -0.6094 H         1 <0>         0.1333
     38 H9         -0.8635    6.5640    4.0721 H         1 <0>         0.0719
     39 H10        -2.4942    5.8517    4.1124 H         1 <0>         0.0812
     40 H11        -1.0981    4.9121    4.6922 H         1 <0>         0.0726
     41 H12         3.5645    2.6651   -0.4776 H         1 <0>         0.4113
     42 H13         6.0898    2.5652   -0.2463 H         1 <0>         0.1361
     43 H14         8.1448    3.9075   -0.4216 H         1 <0>         0.1398
     44 H15         8.0189    6.3653   -0.3874 H         1 <0>         0.1417
     45 H16         3.7767    6.1544   -0.0101 H         1 <0>         0.1509
     46 H17         6.8688   10.0429   -2.7564 H         1 <0>         0.0869
     47 H18         7.7198    8.6442   -2.0516 H         1 <0>         0.1004
     48 H19         6.7451    7.1392   -3.7136 H         1 <0>         0.0570
     49 H20         7.4613    8.5209   -4.5782 H         1 <0>         0.1085
     50 H21         4.3490    7.0201   -3.4952 H         1 <0>         0.0556
     51 H22         3.3563    8.3178   -4.2038 H         1 <0>         0.1083
     52 H23         3.5477    8.4279   -1.6743 H         1 <0>         0.0993
     53 H24         4.1106    9.9000   -2.5064 H         1 <0>         0.0871
@<TRIPOS>BOND
     1    1    2 1
     2    1   32 1
     3    1   33 1
     4    1   34 1
     5    2    3 1
     6    2   11 1
     7    2    4 1
     8    4    9 ar
     9    4    5 ar
    10    5    6 ar
    11    5   35 1
    12    6    7 ar
    13    6   36 1
    14    7    8 ar
    15    7   37 1
    16    8    9 ar
    17    8   14 1
    18    9   10 1
    19   10   11 1
    20   11   12 1
    21   11   13 1
    22   13   38 1
    23   13   39 1
    24   13   40 1
    25   14   15 2
    26   14   16 am
    27   16   17 1
    28   16   41 1
    29   17   22 ar
    30   17   18 ar
    31   18   19 ar
    32   18   42 1
    33   19   20 ar
    34   19   43 1
    35   20   21 ar
    36   20   44 1
    37   21   22 ar
    38   21   23 1
    39   22   45 1
    40   23   24 2
    41   23   25 2
    42   23   26 1
    43   26   31 1
    44   26   27 1
    45   27   28 1
    46   27   46 1
    47   27   47 1
    48   28   29 1
    49   28   48 1
    50   28   49 1
    51   29   30 1
    52   30   31 1
    53   30   50 1
    54   30   51 1
    55   31   52 1
    56   31   53 1
