@<TRIPOS>MOLECULE
ZINC37313568
   41    42     0     0     0
SMALL
USER_CHARGES

@<TRIPOS>ATOM
      1 C1          0.0441    1.5504    0.0202 C.3       1 <0>        -0.1404
      2 C2          0.0021    0.0212   -0.0080 C.3       1 <0>        -0.0976
      3 C3          0.7075   -0.4780   -1.2427 C.ar      1 <0>        -0.0719
      4 C4         -0.0288   -0.9028   -2.3337 C.ar      1 <0>        -0.0698
      5 C5          0.6143   -1.3604   -3.4667 C.ar      1 <0>        -0.1450
      6 C6          2.0025   -1.3936   -3.5100 C.ar      1 <0>         0.2164
      7 C7          2.7388   -0.9662   -2.4126 C.ar      1 <0>        -0.1365
      8 C8          2.0892   -0.5048   -1.2843 C.ar      1 <0>         0.0011
      9 N1          2.8730   -0.0434   -0.1168 N.pl3     1 <0>         0.0354
     10 O1          4.0780    0.0256   -0.1867 O.2       1 <0>        -0.1686
     11 O2          2.3083    0.2644    0.9070 O.3       1 <0>        -0.1486
     12 N2          2.6563   -1.8563   -4.6543 N.pl3     1 <0>        -0.7360
     13 C9          1.8780   -2.3072   -5.8107 C.3       1 <0>         0.1669
     14 C10         2.8148   -2.7527   -6.9039 C.ar      1 <0>        -0.1162
     15 C11         3.2619   -1.8433   -7.8444 C.ar      1 <0>        -0.1005
     16 C12         4.1210   -2.2520   -8.8470 C.ar      1 <0>        -0.1184
     17 C13         4.5338   -3.5700   -8.9090 C.ar      1 <0>        -0.0744
     18 C14         4.0876   -4.4789   -7.9682 C.ar      1 <0>        -0.0880
     19 C15         3.2315   -4.0692   -6.9628 C.ar      1 <0>        -0.0956
     20 C16         4.5371   -5.9157   -8.0362 C.3       1 <0>        -0.1204
     21 C17         5.4698   -4.0158  -10.0027 C.3       1 <0>        -0.1226
     22 H1          1.0813    1.8852    0.0339 H         1 <0>         0.0528
     23 H2         -0.4531    1.9439   -0.8664 H         1 <0>         0.0506
     24 H3         -0.4661    1.9114    0.9132 H         1 <0>         0.0669
     25 H4          0.4993   -0.3723    0.8786 H         1 <0>         0.1029
     26 H5         -1.0351   -0.3137   -0.0217 H         1 <0>         0.0758
     27 H6         -1.1079   -0.8771   -2.2992 H         1 <0>         0.1456
     28 H7          0.0388   -1.6923   -4.3182 H         1 <0>         0.1395
     29 H8          3.8181   -0.9912   -2.4428 H         1 <0>         0.1488
     30 H9          3.6256   -1.8790   -4.6834 H         1 <0>         0.4061
     31 H10         1.2402   -3.1407   -5.5167 H         1 <0>         0.0717
     32 H11         1.2593   -1.4868   -6.1744 H         1 <0>         0.0721
     33 H12         2.9394   -0.8137   -7.7959 H         1 <0>         0.1235
     34 H13         4.4697   -1.5417   -9.5821 H         1 <0>         0.1252
     35 H14         2.8859   -4.7786   -6.2255 H         1 <0>         0.1234
     36 H15         5.4508   -6.0385   -7.4545 H         1 <0>         0.0724
     37 H16         3.7578   -6.5599   -7.6289 H         1 <0>         0.0668
     38 H17         4.7279   -6.1881   -9.0742 H         1 <0>         0.0725
     39 H18         6.5007   -3.8993   -9.6686 H         1 <0>         0.0736
     40 H19         5.2805   -5.0630  -10.2386 H         1 <0>         0.0727
     41 H20         5.3052   -3.4076  -10.8921 H         1 <0>         0.0679
@<TRIPOS>BOND
     1    1    2 1
     2    1   22 1
     3    1   23 1
     4    1   24 1
     5    2    3 1
     6    2   25 1
     7    2   26 1
     8    3    8 ar
     9    3    4 ar
    10    4    5 ar
    11    4   27 1
    12    5    6 ar
    13    5   28 1
    14    6    7 ar
    15    6   12 1
    16    7    8 ar
    17    7   29 1
    18    8    9 1
    19    9   10 2
    20    9   11 1
    21   12   13 1
    22   12   30 1
    23   13   14 1
    24   13   31 1
    25   13   32 1
    26   14   19 ar
    27   14   15 ar
    28   15   16 ar
    29   15   33 1
    30   16   17 ar
    31   16   34 1
    32   17   18 ar
    33   17   21 1
    34   18   19 ar
    35   18   20 1
    36   19   35 1
    37   20   36 1
    38   20   37 1
    39   20   38 1
    40   21   39 1
    41   21   40 1
    42   21   41 1
