@<TRIPOS>MOLECULE
ZINC12358636
   69    70     0     0     0
SMALL
USER_CHARGES
(2S,3R,4R,5S,6S)-6-(hydroxymethyl)-2,3,4,5-tetramethyl-2-[(2R,3R,4S,5R,6R)-4,5,6-trihydroxy-2-(hydroxymethyl)-3,4,5,6-tetramethyl-tetrahydropyran-3-yl]oxy-tetrahydropyran-3,4,5-triol
@<TRIPOS>ATOM
      1 C1          1.9531    1.7194    0.9998 C.3       1 <0>        -0.1730
      2 C2          0.7198    2.3249    0.3267 C.3       1 <0>         0.0543
      3 C3          0.7423    2.0005   -1.1693 C.3       1 <0>         0.0943
      4 H1         -0.1573    2.3963   -1.6407 H         1 <0>         0.1537
      5 O1          1.8953    2.5965   -1.7673 O.3       1 <0>        -0.3276
      6 C4          1.9340    4.0214   -1.6668 C.3       1 <0>         0.2435
      7 C5          1.9594    4.4270   -0.1908 C.3       1 <0>         0.1469
      8 C6          0.7294    3.8453    0.5130 C.3       1 <0>         0.1755
      9 C7         -0.5392    4.4439   -0.0978 C.3       1 <0>        -0.1866
     10 O2          0.7833    4.1557    1.9069 O.3       1 <0>        -0.5459
     11 C8          1.9399    5.9528   -0.0794 C.3       1 <0>        -0.1764
     12 O3          3.1449    3.9184    0.4239 O.3       1 <0>        -0.5231
     13 C9          3.1910    4.5480   -2.3623 C.3       1 <0>        -0.2415
     14 O4          0.7751    4.5750   -2.2933 O.3       1 <0>        -0.3590
     15 C10         0.6860    4.3031   -3.7058 C.3       1 <0>         0.1095
     16 C11        -0.7165    4.6874   -4.1726 C.3       1 <0>         0.1220
     17 H2         -1.4583    4.2501   -3.5056 H         1 <0>         0.0794
     18 O5         -0.9152    4.2489   -5.5118 O.3       1 <0>        -0.3758
     19 C12        -0.8474    2.8441   -5.7157 C.3       1 <0>         0.2722
     20 C13         0.4937    2.2784   -5.2639 C.3       1 <0>         0.1182
     21 C14         0.9685    2.8242   -3.9270 C.3       1 <0>         0.0959
     22 C15         2.4898    2.5985   -3.8198 C.3       1 <0>        -0.2136
     23 O6          0.3495    2.0728   -2.8674 O.3       1 <0>        -0.4741
     24 C16         1.5462    2.5268   -6.3517 C.3       1 <0>        -0.1744
     25 O7          0.3456    0.8477   -5.1330 O.3       1 <0>        -0.5525
     26 C17        -1.9908    2.1376   -4.9835 C.3       1 <0>        -0.1991
     27 O8         -0.9968    2.5856   -7.1243 O.3       1 <0>        -0.5430
     28 C18        -0.8589    6.2151   -4.1203 C.3       1 <0>         0.0834
     29 O9         -2.2081    6.5782   -4.4202 O.3       1 <0>        -0.5672
     30 C19         1.7252    5.1735   -4.4164 C.3       1 <0>        -0.2132
     31 C20         0.7942    0.4835   -1.3617 C.3       1 <0>         0.0588
     32 O10         1.5219    0.1792   -2.5533 O.3       1 <0>        -0.5299
     33 O11        -0.4621    1.7791    0.9159 O.3       1 <0>        -0.5579
     34 H3          1.8897    0.6319    0.9637 H         1 <0>         0.0426
     35 H4          2.8509    2.0485    0.4766 H         1 <0>         0.0988
     36 H5          1.9975    2.0465    2.0386 H         1 <0>         0.0608
     37 H6         -1.4085    4.1057    0.4662 H         1 <0>         0.0631
     38 H7         -0.4823    5.5317   -0.0600 H         1 <0>         0.0635
     39 H8         -0.6306    4.1206   -1.1348 H         1 <0>         0.0972
     40 H9          0.0366    3.8112    2.4157 H         1 <0>         0.3800
     41 H10         1.0343    6.3397   -0.5466 H         1 <0>         0.0780
     42 H11         1.9580    6.2406    0.9717 H         1 <0>         0.0750
     43 H12         2.8137    6.3651   -0.5841 H         1 <0>         0.0601
     44 H13         3.9644    4.2420    0.0254 H         1 <0>         0.3678
     45 H14         3.3248    4.0299   -3.3119 H         1 <0>         0.1427
     46 H15         3.0848    5.6175   -2.5438 H         1 <0>         0.0840
     47 H16         4.0588    4.3717   -1.7267 H         1 <0>         0.0715
     48 H17         2.8500    2.9955   -2.8707 H         1 <0>         0.1524
     49 H18         2.7032    1.5309   -3.8715 H         1 <0>         0.0776
     50 H19         2.9917    3.1096   -4.6414 H         1 <0>         0.0409
     51 H20         0.2769    1.1255   -3.0475 H         1 <0>         0.3701
     52 H21         1.6439    3.5985   -6.5249 H         1 <0>         0.0662
     53 H22         2.5053    2.1221   -6.0284 H         1 <0>         0.0714
     54 H23         1.2375    2.0361   -7.2748 H         1 <0>         0.0683
     55 H24         0.0917    0.4020   -5.9527 H         1 <0>         0.3823
     56 H25        -2.9454    2.5036   -5.3615 H         1 <0>         0.0652
     57 H26        -1.9211    1.0630   -5.1521 H         1 <0>         0.0810
     58 H27        -1.9200    2.3431   -3.9154 H         1 <0>         0.0733
     59 H28        -1.8331    2.8990   -7.4951 H         1 <0>         0.3858
     60 H29        -0.6002    6.5702   -3.1228 H         1 <0>         0.0713
     61 H30        -0.1897    6.6677   -4.8520 H         1 <0>         0.0568
     62 H31        -2.3715    7.5312   -4.4053 H         1 <0>         0.3819
     63 H32         2.7259    4.8179   -4.1711 H         1 <0>         0.0987
     64 H33         1.5726    5.1147   -5.4940 H         1 <0>         0.0720
     65 H34         1.6171    6.2079   -4.0900 H         1 <0>         0.0715
     66 H35         1.2902    0.0255   -0.5060 H         1 <0>         0.0534
     67 H36        -0.2200    0.0931   -1.4457 H         1 <0>         0.0516
     68 H37         1.5950   -0.7671   -2.7386 H         1 <0>         0.3755
     69 H38        -0.5352    0.8184    0.8332 H         1 <0>         0.3737
@<TRIPOS>BOND
     1    1    2 1
     2    1   34 1
     3    1   35 1
     4    1   36 1
     5    2    8 1
     6    2    3 1
     7    2   33 1
     8    3    4 1
     9    3    5 1
    10    3   31 1
    11    5    6 1
    12    6    7 1
    13    6   13 1
    14    6   14 1
    15    7    8 1
    16    7   11 1
    17    7   12 1
    18    8    9 1
    19    8   10 1
    20    9   37 1
    21    9   38 1
    22    9   39 1
    23   10   40 1
    24   11   41 1
    25   11   42 1
    26   11   43 1
    27   12   44 1
    28   13   45 1
    29   13   46 1
    30   13   47 1
    31   14   15 1
    32   15   21 1
    33   15   16 1
    34   15   30 1
    35   16   17 1
    36   16   18 1
    37   16   28 1
    38   18   19 1
    39   19   20 1
    40   19   26 1
    41   19   27 1
    42   20   21 1
    43   20   24 1
    44   20   25 1
    45   21   22 1
    46   21   23 1
    47   22   48 1
    48   22   49 1
    49   22   50 1
    50   23   51 1
    51   24   52 1
    52   24   53 1
    53   24   54 1
    54   25   55 1
    55   26   56 1
    56   26   57 1
    57   26   58 1
    58   27   59 1
    59   28   29 1
    60   28   60 1
    61   28   61 1
    62   29   62 1
    63   30   63 1
    64   30   64 1
    65   30   65 1
    66   31   32 1
    67   31   66 1
    68   31   67 1
    69   32   68 1
    70   33   69 1
