@<TRIPOS>MOLECULE
ZINC09025060
   48    50     0     0     0
SMALL
USER_CHARGES
N-[2-[5-[(4-fluorophenyl)methylsulfonyl]-1,3,4-oxadiazol-2-yl]ethyl]-4-hydroxy-1,1-dioxo-thiolane-3-sulfonamide
@<TRIPOS>ATOM
      1 C1         10.6250    4.3442    5.7537 C.ar      1 <0>        -0.0667
      2 C2         11.1980    4.8613    6.9001 C.ar      1 <0>        -0.1521
      3 C3         11.9651    4.0484    7.7173 C.ar      1 <0>         0.1212
      4 C4         12.1528    2.7168    7.3876 C.ar      1 <0>        -0.1513
      5 C5         11.5745    2.2006    6.2435 C.ar      1 <0>        -0.0657
      6 C6         10.8087    3.0132    5.4283 C.ar      1 <0>        -0.1202
      7 C7         10.1790    2.4493    4.1808 C.3       1 <0>        -0.5385
      8 S1          8.5299    1.8042    4.5744 S.o2      1 <0>         2.5086
      9 O1          7.6546    2.8714    4.9122 O.2       1 <0>        -0.8893
     10 O2          8.6384    0.6629    5.4140 O.2       1 <0>        -0.8727
     11 C8          7.9108    1.1813    3.0468 C.2       1 <0>        -0.3640
     12 N1          8.0580   -0.0306    2.5921 N.2       1 <0>        -0.1693
     13 N2          7.4765   -0.1311    1.4487 N.2       1 <0>        -0.2716
     14 C9          6.9387    1.0132    1.1351 C.2       1 <0>         0.2013
     15 O3          7.2049    1.8706    2.1347 O.3       1 <0>        -0.1716
     16 C10         6.1654    1.3207   -0.1213 C.3       1 <0>        -0.0400
     17 C11         4.6810    1.0304    0.1095 C.3       1 <0>         0.1009
     18 N3          3.9293    1.3293   -1.1119 N.pl3     1 <0>        -1.1115
     19 S2          2.3804    0.7707   -1.2884 S.o2      1 <0>         2.6325
     20 O4          2.4604   -0.6179   -0.9972 O.2       1 <0>        -0.9342
     21 O5          1.9778    1.2189   -2.5754 O.2       1 <0>        -0.9236
     22 C12         1.4274    1.6248   -0.0028 C.3       1 <0>        -0.6087
     23 H1          1.4121    2.6938   -0.2153 H         1 <0>         0.1747
     24 C13         2.0914    1.3840    1.3744 C.3       1 <0>        -0.5886
     25 S3          0.6547    1.3935    2.5225 S.o2      1 <0>         2.3892
     26 O6          0.5433    0.1157    3.1342 O.2       1 <0>        -0.9149
     27 O7          0.7220    2.5555    3.3377 O.2       1 <0>        -0.9171
     28 C14        -0.7105    1.5946    1.3016 C.3       1 <0>        -0.6083
     29 C15        -0.0127    1.0858    0.0080 C.3       1 <0>         0.1208
     30 H2          0.0021   -0.0041    0.0020 H         1 <0>         0.1005
     31 O8         -0.7161    1.5652   -1.1398 O.3       1 <0>        -0.5396
     32 F1         12.5297    4.5540    8.8357 F         1 <0>        -0.1310
     33 H3         10.0300    4.9791    5.1140 H         1 <0>         0.1454
     34 H4         11.0509    5.9001    7.1563 H         1 <0>         0.1467
     35 H5         12.7507    2.0817    8.0244 H         1 <0>         0.1472
     36 H6         11.7204    1.1619    5.9863 H         1 <0>         0.1472
     37 H7         10.8013    1.6431    3.7922 H         1 <0>         0.1583
     38 H8         10.0921    3.2352    3.4305 H         1 <0>         0.1554
     39 H9          6.5348    0.6987   -0.9367 H         1 <0>         0.1344
     40 H10         6.2943    2.3719   -0.3792 H         1 <0>         0.1202
     41 H11         4.3117    1.6525    0.9249 H         1 <0>         0.0836
     42 H12         4.5522   -0.0208    0.3674 H         1 <0>         0.1010
     43 H13         4.3389    1.8545   -1.8172 H         1 <0>         0.4261
     44 H14         2.5971    0.4187    1.3961 H         1 <0>         0.1543
     45 H15         2.7842    2.1902    1.6156 H         1 <0>         0.1680
     46 H16        -1.0033    2.6402    1.2064 H         1 <0>         0.1564
     47 H17        -1.5656    0.9700    1.5600 H         1 <0>         0.1549
     48 H18        -1.6325    1.2613   -1.1948 H         1 <0>         0.4017
@<TRIPOS>BOND
     1    1    6 ar
     2    1    2 ar
     3    1   33 1
     4    2    3 ar
     5    2   34 1
     6    3    4 ar
     7    3   32 1
     8    4    5 ar
     9    4   35 1
    10    5    6 ar
    11    5   36 1
    12    6    7 1
    13    7    8 1
    14    7   37 1
    15    7   38 1
    16    8    9 2
    17    8   10 2
    18    8   11 1
    19   11   15 1
    20   11   12 2
    21   12   13 1
    22   13   14 2
    23   14   15 1
    24   14   16 1
    25   16   17 1
    26   16   39 1
    27   16   40 1
    28   17   18 1
    29   17   41 1
    30   17   42 1
    31   18   19 1
    32   18   43 1
    33   19   20 2
    34   19   21 2
    35   19   22 1
    36   22   23 1
    37   22   29 1
    38   22   24 1
    39   24   25 1
    40   24   44 1
    41   24   45 1
    42   25   26 2
    43   25   27 2
    44   25   28 1
    45   28   29 1
    46   28   46 1
    47   28   47 1
    48   29   30 1
    49   29   31 1
    50   31   48 1
