@<TRIPOS>MOLECULE
ZINC39695453
   72    75     0     0     0
SMALL
USER_CHARGES

@<TRIPOS>ATOM
      1 C1          2.4457   -4.8508   -2.5605 C.3       1 <0>        -0.1916
      2 C2          0.9962   -5.3295   -2.6641 C.3       1 <0>        -0.0097
      3 N1          0.1768   -4.6293   -1.6660 N.4       1 <0>        -0.3965
      4 C3          0.6019   -5.0257   -0.3066 C.3       1 <0>        -0.0121
      5 C4         -0.7070   -5.0670    0.5209 C.3       1 <0>        -0.1442
      6 C5         -1.7153   -5.6292   -0.5154 C.3       1 <0>        -0.1340
      7 C6         -1.2402   -4.9974   -1.8408 C.3       1 <0>         0.0129
      8 H1         -1.3385   -5.7191   -2.6517 H         1 <0>         0.1452
      9 C7         -2.0684   -3.7483   -2.1483 C.3       1 <0>         0.0956
     10 N2         -1.5014   -3.0604   -3.3108 N.am      1 <0>        -0.7556
     11 C8         -2.0704   -1.9270   -3.7669 C.2       1 <0>         0.5276
     12 O1         -3.0519   -1.4765   -3.2149 O.2       1 <0>        -0.4916
     13 C9         -1.4871   -1.2194   -4.9628 C.3       1 <0>        -0.1138
     14 H2         -0.4134   -1.3973   -5.0217 H         1 <0>         0.1139
     15 C10        -1.7779    0.2962   -4.8858 C.3       1 <0>         0.1080
     16 N3         -2.0428    0.6982   -6.2873 N.am      1 <0>        -0.6219
     17 C11        -2.8289   -0.4254   -6.8509 C.3       1 <0>         0.1072
     18 C12        -2.1793   -1.6893   -6.2533 C.3       1 <0>        -0.0736
     19 C13        -3.2482   -2.7292   -5.9311 C.3       1 <0>        -0.1444
     20 C14        -3.8818   -3.2241   -7.2343 C.3       1 <0>        -0.0096
     21 N4         -2.8452   -3.8086   -8.0936 N.4       1 <0>        -0.5041
     22 C15        -1.8714   -2.7785   -8.4748 C.3       1 <0>        -0.0134
     23 C16        -1.1527   -2.2648   -7.2240 C.3       1 <0>        -0.1324
     24 C17        -1.6561    1.8296   -6.9094 C.2       1 <0>         0.5365
     25 O2         -1.9539    2.0155   -8.0702 O.2       1 <0>        -0.5034
     26 C18        -0.8536    2.8636   -6.1624 C.3       1 <0>         0.1263
     27 H3         -0.1093    2.3729   -5.5353 H         1 <0>         0.1069
     28 C19        -1.7903    3.7247   -5.2891 C.3       1 <0>        -0.1220
     29 C20        -1.1815    5.1455   -5.4229 C.3       1 <0>        -0.1276
     30 C21        -0.6907    5.1364   -6.8922 C.3       1 <0>         0.0777
     31 N5         -0.1890    3.7648   -7.1151 N.am      1 <0>        -0.5813
     32 C22         0.7242    3.3989   -8.0363 C.2       1 <0>         0.5126
     33 O3          1.0613    2.2375   -8.1281 O.2       1 <0>        -0.4822
     34 C23         1.3266    4.4329   -8.9523 C.3       1 <0>         0.4580
     35 F1          2.2406    3.8169   -9.8139 F         1 <0>        -0.1482
     36 F2          0.3129    5.0380   -9.7031 F         1 <0>        -0.1595
     37 F3          1.9854    5.4038   -8.1904 F         1 <0>        -0.1625
     38 H4          3.0537   -5.3704   -3.3011 H         1 <0>         0.1096
     39 H5          2.4878   -3.7773   -2.7443 H         1 <0>         0.0798
     40 H6          2.8282   -5.0638   -1.5623 H         1 <0>         0.0860
     41 H7          0.6137   -5.1166   -3.6623 H         1 <0>         0.1190
     42 H8          0.9541   -6.4031   -2.4802 H         1 <0>         0.1353
     43 H9          1.0691   -6.0103   -0.3271 H         1 <0>         0.1378
     44 H10         1.2889   -4.2872    0.1066 H         1 <0>         0.1382
     45 H11        -0.6086   -5.7384    1.3740 H         1 <0>         0.1246
     46 H12        -0.9961   -4.0670    0.8444 H         1 <0>         0.1013
     47 H13        -1.6535   -6.7164   -0.5627 H         1 <0>         0.1094
     48 H14        -2.7301   -5.3097   -0.2782 H         1 <0>         0.1192
     49 H15        -3.0969   -4.0381   -2.3635 H         1 <0>         0.1180
     50 H16        -2.0518   -3.0803   -1.2871 H         1 <0>         0.1025
     51 H17        -0.7164   -3.4207   -3.7523 H         1 <0>         0.3949
     52 H18        -2.6535    0.4841   -4.2646 H         1 <0>         0.1048
     53 H19        -0.9117    0.8299   -4.4947 H         1 <0>         0.0950
     54 H20        -3.8722   -0.3514   -6.5440 H         1 <0>         0.0885
     55 H21        -2.7511   -0.4366   -7.9380 H         1 <0>         0.0926
     56 H22        -2.7925   -3.5688   -5.4062 H         1 <0>         0.0904
     57 H23        -4.0156   -2.2790   -5.3014 H         1 <0>         0.1262
     58 H24        -4.6344   -3.9794   -7.0082 H         1 <0>         0.1417
     59 H25        -4.3516   -2.3868   -7.7505 H         1 <0>         0.1368
     60 H26        -2.3731   -4.5473   -7.5939 H         1 <0>         0.4242
     61 H27        -1.1420   -3.2054   -9.1632 H         1 <0>         0.1436
     62 H28        -2.3890   -1.9519   -8.9614 H         1 <0>         0.1371
     63 H29        -0.4426   -1.4873   -7.5059 H         1 <0>         0.1223
     64 H30        -0.6212   -3.0877   -6.7460 H         1 <0>         0.0913
     65 H31        -2.8083    3.7031   -5.6782 H         1 <0>         0.0893
     66 H32        -1.7657    3.3906   -4.2518 H         1 <0>         0.1004
     67 H33        -1.9410    5.9121   -5.2694 H         1 <0>         0.1050
     68 H34        -0.3480    5.2799   -4.7334 H         1 <0>         0.0905
     69 H35        -1.5165    5.3544   -7.5693 H         1 <0>         0.0931
     70 H36         0.1134    5.8597   -7.0280 H         1 <0>         0.0987
     71 H37        -3.2736   -4.1885   -8.9243 H         1 <0>         0.4388
     72 H38         0.2846   -3.6322   -1.7761 H         1 <0>         0.4206
@<TRIPOS>BOND
     1    1    2 1
     2    1   38 1
     3    1   39 1
     4    1   40 1
     5    2    3 1
     6    2   41 1
     7    2   42 1
     8    3    7 1
     9    3    4 1
    10    3   72 1
    11    4    5 1
    12    4   43 1
    13    4   44 1
    14    5    6 1
    15    5   45 1
    16    5   46 1
    17    6    7 1
    18    6   47 1
    19    6   48 1
    20    7    8 1
    21    7    9 1
    22    9   10 1
    23    9   49 1
    24    9   50 1
    25   10   11 am
    26   10   51 1
    27   11   12 2
    28   11   13 1
    29   13   14 1
    30   13   18 1
    31   13   15 1
    32   15   16 1
    33   15   52 1
    34   15   53 1
    35   16   17 1
    36   16   24 am
    37   17   18 1
    38   17   54 1
    39   17   55 1
    40   18   23 1
    41   18   19 1
    42   19   20 1
    43   19   56 1
    44   19   57 1
    45   20   21 1
    46   20   58 1
    47   20   59 1
    48   21   22 1
    49   21   60 1
    50   21   71 1
    51   22   23 1
    52   22   61 1
    53   22   62 1
    54   23   63 1
    55   23   64 1
    56   24   25 2
    57   24   26 1
    58   26   27 1
    59   26   31 1
    60   26   28 1
    61   28   29 1
    62   28   65 1
    63   28   66 1
    64   29   30 1
    65   29   67 1
    66   29   68 1
    67   30   31 1
    68   30   69 1
    69   30   70 1
    70   31   32 am
    71   32   33 2
    72   32   34 1
    73   34   35 1
    74   34   36 1
    75   34   37 1
