@<TRIPOS>MOLECULE
ZINC50658291
   40    41     0     0     0
SMALL
USER_CHARGES

@<TRIPOS>ATOM
      1 C1         -0.4216    1.3759    0.1763 C.3       1 <0>        -0.1544
      2 C2         -0.3454   -0.1513    0.1223 C.3       1 <0>        -0.1193
      3 C3          0.4436   -0.5790   -1.1168 C.3       1 <0>        -0.1012
      4 H1         -0.0052   -0.1348   -2.0052 H         1 <0>         0.0802
      5 C4          1.8937   -0.1074   -0.9869 C.3       1 <0>        -0.1150
      6 C5          2.6759   -0.5061   -2.2404 C.3       1 <0>        -0.1330
      7 C6          2.6740   -2.0321   -2.3748 C.3       1 <0>         0.1115
      8 N1          1.2837   -2.5069   -2.3545 N.pl3     1 <0>        -0.9998
      9 C7          0.4157   -2.1058   -1.2388 C.3       1 <0>         0.1173
     10 S1          0.7052   -3.4756   -3.5666 S.o2      1 <0>         2.6931
     11 O1         -0.7123   -3.3905   -3.5130 O.2       1 <0>        -0.9229
     12 O2          1.4442   -3.1487   -4.7355 O.2       1 <0>        -0.9287
     13 C8          1.1261   -5.1357   -3.1526 C.ar      1 <0>        -0.5684
     14 C9          2.0293   -5.3858   -2.1379 C.ar      1 <0>        -0.1099
     15 C10         2.3601   -6.6947   -1.8118 C.ar      1 <0>         0.2538
     16 C11         1.7810   -7.7483   -2.5080 C.ar      1 <0>        -0.1580
     17 C12         0.8788   -7.4912   -3.5213 C.ar      1 <0>        -0.0088
     18 C13         0.5476   -6.1867   -3.8399 C.ar      1 <0>        -0.0301
     19 N2         -0.4241   -5.9151   -4.9228 N.pl3     1 <0>         0.0297
     20 O3         -1.0218   -6.8288   -5.4419 O.2       1 <0>        -0.1279
     21 O4         -0.6201   -4.7794   -5.2882 O.3       1 <0>        -0.1683
     22 N3          3.2734   -6.9512   -0.7866 N.pl3     1 <0>        -0.8523
     23 H2          0.5861    1.7884    0.2270 H         1 <0>         0.0568
     24 H3         -0.9214    1.7467   -0.7186 H         1 <0>         0.0556
     25 H4         -0.9837    1.6806    1.0591 H         1 <0>         0.0551
     26 H5          0.1543   -0.5220    1.0172 H         1 <0>         0.0640
     27 H6         -1.3531   -0.5637    0.0716 H         1 <0>         0.0667
     28 H7          1.9144    0.9767   -0.8755 H         1 <0>         0.0717
     29 H8          2.3493   -0.5709   -0.1118 H         1 <0>         0.0645
     30 H9          2.2062   -0.0630   -3.1186 H         1 <0>         0.0728
     31 H10         3.7025   -0.1495   -2.1574 H         1 <0>         0.0788
     32 H11         3.1436   -2.3167   -3.3164 H         1 <0>         0.0940
     33 H12         3.2228   -2.4729   -1.5425 H         1 <0>         0.0698
     34 H13         0.7801   -2.5530   -0.3140 H         1 <0>         0.0710
     35 H14        -0.6043   -2.4384   -1.4309 H         1 <0>         0.0980
     36 H15         2.4779   -4.5645   -1.5989 H         1 <0>         0.1546
     37 H16         2.0363   -8.7673   -2.2572 H         1 <0>         0.1546
     38 H17         0.4282   -8.3098   -4.0629 H         1 <0>         0.1643
     39 H18         3.6774   -6.2148   -0.3015 H         1 <0>         0.4091
     40 H19         3.5037   -7.8658   -0.5598 H         1 <0>         0.4108
@<TRIPOS>BOND
     1    1    2 1
     2    1   23 1
     3    1   24 1
     4    1   25 1
     5    2    3 1
     6    2   26 1
     7    2   27 1
     8    3    4 1
     9    3    9 1
    10    3    5 1
    11    5    6 1
    12    5   28 1
    13    5   29 1
    14    6    7 1
    15    6   30 1
    16    6   31 1
    17    7    8 1
    18    7   32 1
    19    7   33 1
    20    8    9 1
    21    8   10 1
    22    9   34 1
    23    9   35 1
    24   10   11 2
    25   10   12 2
    26   10   13 1
    27   13   18 ar
    28   13   14 ar
    29   14   15 ar
    30   14   36 1
    31   15   16 ar
    32   15   22 1
    33   16   17 ar
    34   16   37 1
    35   17   18 ar
    36   17   38 1
    37   18   19 1
    38   19   20 2
    39   19   21 1
    40   22   39 1
    41   22   40 1
