@<TRIPOS>MOLECULE
ZINC15900079
   45    47     0     0     0
SMALL
USER_CHARGES
1-[[2-(1,4-dioxo-3H-phthalazin-2-yl)acetyl]amino]-3-[[(2R)-tetrahydrofuran-2-yl]methyl]thiourea
@<TRIPOS>ATOM
      1 C1         -8.4851   -2.5165    1.1598 C.ar      1 <0>        -0.0947
      2 C2         -7.9750   -2.0804    2.3698 C.ar      1 <0>        -0.0962
      3 C3         -6.9359   -1.1670    2.4067 C.ar      1 <0>        -0.0594
      4 C4         -6.4029   -0.6861    1.2190 C.ar      1 <0>        -0.1059
      5 C5         -6.9224   -1.1301   -0.0132 C.ar      1 <0>        -0.1067
      6 C6         -7.9645   -2.0463   -0.0333 C.ar      1 <0>        -0.0603
      7 C7         -6.3326   -0.5992   -1.2614 C.2       1 <0>         0.5692
      8 O1         -6.7564   -0.9612   -2.3414 O.2       1 <0>        -0.5062
      9 N1         -5.3216    0.2886   -1.1916 N.am      1 <0>        -0.5025
     10 H1         -4.9398    0.6324   -2.0144 H         1 <0>         0.4283
     11 N2         -4.8074    0.7287    0.0288 N.am      1 <0>        -0.3879
     12 C8         -5.2889    0.2868    1.2070 C.2       1 <0>         0.5737
     13 O2         -4.8145    0.6877    2.2516 O.2       1 <0>        -0.5047
     14 C9         -3.7069    1.6958    0.0288 C.3       1 <0>         0.1055
     15 C10        -2.3917    0.9601    0.0186 C.2       1 <0>         0.4988
     16 O3         -2.3752   -0.2526    0.0119 O.2       1 <0>        -0.5007
     17 N3         -1.2338    1.6498    0.0169 N.am      1 <0>        -0.5448
     18 N4         -0.0111    0.9658    0.0074 N.pl3     1 <0>        -0.4705
     19 C11         1.1468    1.6555   -0.0000 C.2       1 <0>         0.5604
     20 S1          2.6409    0.8198   -0.0188 S.2       1 <0>        -0.5870
     21 N5          1.1285    3.0031    0.0074 N.pl3     1 <0>        -0.6768
     22 C12         2.3872    3.7528   -0.0006 C.3       1 <0>         0.1257
     23 C13         2.0872    5.2531    0.0103 C.3       1 <0>         0.0602
     24 H2          1.5052    5.5081    0.8959 H         1 <0>         0.0776
     25 C14         3.4055    6.0511    0.0020 C.3       1 <0>        -0.1478
     26 C15         3.3124    6.9244   -1.2728 C.3       1 <0>        -0.1561
     27 C16         1.7859    6.9459   -1.5409 C.3       1 <0>         0.0467
     28 O4          1.3612    5.6151   -1.1763 O.3       1 <0>        -0.3765
     29 H3         -9.2959   -3.2298    1.1462 H         1 <0>         0.1419
     30 H4         -8.3909   -2.4561    3.2930 H         1 <0>         0.1419
     31 H5         -6.5417   -0.8307    3.3543 H         1 <0>         0.1469
     32 H6         -8.3672   -2.3902   -0.9746 H         1 <0>         0.1478
     33 H7         -3.7689    2.3167    0.9225 H         1 <0>         0.1486
     34 H8         -3.7773    2.3264   -0.8574 H         1 <0>         0.1331
     35 H9         -1.2469    2.6197    0.0222 H         1 <0>         0.4222
     36 H10         0.0021   -0.0041    0.0020 H         1 <0>         0.4595
     37 H11         0.2820    3.4767    0.0180 H         1 <0>         0.3948
     38 H12         2.9707    3.4925    0.8825 H         1 <0>         0.1046
     39 H13         2.9537    3.5021   -0.8974 H         1 <0>         0.0991
     40 H14         3.4770    6.6789    0.8902 H         1 <0>         0.0841
     41 H15         4.2594    5.3765   -0.0592 H         1 <0>         0.0885
     42 H16         3.6883    7.9300   -1.0838 H         1 <0>         0.0847
     43 H17         3.8469    6.4608   -2.1019 H         1 <0>         0.0812
     44 H18         1.2964    7.6905   -0.9131 H         1 <0>         0.0637
     45 H19         1.5839    7.1409   -2.5941 H         1 <0>         0.0962
@<TRIPOS>BOND
     1    1    6 ar
     2    1    2 ar
     3    1   29 1
     4    2    3 ar
     5    2   30 1
     6    3    4 ar
     7    3   31 1
     8    4   12 1
     9    4    5 ar
    10    5    6 ar
    11    5    7 1
    12    6   32 1
    13    7    8 2
    14    7    9 am
    15    9   10 1
    16    9   11 1
    17   11   12 am
    18   11   14 1
    19   12   13 2
    20   14   15 1
    21   14   33 1
    22   14   34 1
    23   15   16 2
    24   15   17 am
    25   17   18 1
    26   17   35 1
    27   18   19 1
    28   18   36 1
    29   19   20 2
    30   19   21 1
    31   21   22 1
    32   21   37 1
    33   22   23 1
    34   22   38 1
    35   22   39 1
    36   23   24 1
    37   23   28 1
    38   23   25 1
    39   25   26 1
    40   25   40 1
    41   25   41 1
    42   26   27 1
    43   26   42 1
    44   26   43 1
    45   27   28 1
    46   27   44 1
    47   27   45 1
