@<TRIPOS>MOLECULE
ZINC66384226
   48    50     0     0     0
SMALL
USER_CHARGES

@<TRIPOS>ATOM
      1 C1          1.0719   -0.4531   -0.7661 C.ar      1 <0>        -0.1074
      2 C2          2.2561    0.2574   -0.7783 C.ar      1 <0>        -0.0901
      3 C3          2.3770    1.4161   -0.0315 C.ar      1 <0>        -0.0454
      4 C4          1.3121    1.8662    0.7291 C.ar      1 <0>        -0.0886
      5 C5          0.1257    1.1594    0.7448 C.ar      1 <0>        -0.1278
      6 C6          0.0017   -0.0036   -0.0037 C.ar      1 <0>         0.1423
      7 N1         -1.1998   -0.7216    0.0101 N.am      1 <0>        -0.6644
      8 C7         -1.1834   -2.0648   -0.0990 C.2       1 <0>         0.5108
      9 O1         -0.1263   -2.6593   -0.1129 O.2       1 <0>        -0.5153
     10 C8         -2.4786   -2.8281   -0.2038 C.3       1 <0>         0.1198
     11 N2         -2.1936   -4.2611   -0.3114 N.am      1 <0>        -0.7279
     12 C9         -3.2068   -5.1436   -0.4166 C.2       1 <0>         0.7145
     13 O2         -4.3573   -4.7505   -0.4223 O.2       1 <0>        -0.5785
     14 N3         -2.9446   -6.4619   -0.5157 N.am      1 <0>        -0.7454
     15 C10        -4.0459   -7.4212   -0.6301 C.3       1 <0>         0.1158
     16 C11        -3.4792   -8.8391   -0.7272 C.3       1 <0>        -0.0229
     17 N4         -4.5835   -9.8010   -0.8419 N.4       1 <0>        -0.3796
     18 C12        -4.0436  -11.1660   -0.7821 C.3       1 <0>         0.0017
     19 C13        -5.2056  -12.1515   -0.5683 C.3       1 <0>        -0.0598
     20 C14        -6.2841  -11.7929   -1.5379 C.2       1 <0>        -0.1967
     21 C15        -6.3696  -10.6426   -2.2639 C.2       1 <0>        -0.1540
     22 C16        -7.4659  -10.5246   -3.1145 C.2       1 <0>        -0.1543
     23 C17        -8.3788  -11.5217   -3.1845 C.2       1 <0>        -0.1487
     24 S1         -7.7185  -12.7088   -2.0230 S.3       1 <0>         0.1431
     25 C18        -5.2913   -9.5749   -2.1078 C.3       1 <0>         0.0602
     26 Cl1         3.8673    2.3062   -0.0482 Cl        1 <0>        -0.0612
     27 H1          0.9766   -1.3551   -1.3523 H         1 <0>         0.1418
     28 H2          3.0887   -0.0918   -1.3710 H         1 <0>         0.1393
     29 H3          1.4090    2.7708    1.3111 H         1 <0>         0.1415
     30 H4         -0.7049    1.5108    1.3391 H         1 <0>         0.1383
     31 H5         -2.0441   -0.2524    0.0982 H         1 <0>         0.4184
     32 H6         -3.0821   -2.6434    0.6849 H         1 <0>         0.1078
     33 H7         -3.0239   -2.4987   -1.0882 H         1 <0>         0.1091
     34 H8         -1.2757   -4.5747   -0.3069 H         1 <0>         0.4120
     35 H9         -2.0267   -6.7755   -0.5112 H         1 <0>         0.4061
     36 H10        -4.6865   -7.3454    0.2485 H         1 <0>         0.0907
     37 H11        -4.6284   -7.2007   -1.5246 H         1 <0>         0.0900
     38 H12        -2.8385   -8.9149   -1.6058 H         1 <0>         0.1404
     39 H13        -2.8967   -9.0596    0.1673 H         1 <0>         0.1429
     40 H14        -3.5348  -11.3987   -1.7175 H         1 <0>         0.1365
     41 H15        -3.3409  -11.2446    0.0474 H         1 <0>         0.1444
     42 H16        -4.8655  -13.1704   -0.7534 H         1 <0>         0.1300
     43 H17        -5.5811  -12.0653    0.4513 H         1 <0>         0.1125
     44 H18        -7.5880   -9.6373   -3.7181 H         1 <0>         0.1446
     45 H19        -9.2736  -11.5838   -3.7860 H         1 <0>         0.2001
     46 H20        -5.7532   -8.5877   -2.0969 H         1 <0>         0.1432
     47 H21        -4.5873   -9.6423   -2.9372 H         1 <0>         0.1411
     48 H22        -5.2240   -9.6640   -0.0744 H         1 <0>         0.4288
@<TRIPOS>BOND
     1    1    6 ar
     2    1    2 ar
     3    1   27 1
     4    2    3 ar
     5    2   28 1
     6    3    4 ar
     7    3   26 1
     8    4    5 ar
     9    4   29 1
    10    5    6 ar
    11    5   30 1
    12    6    7 1
    13    7    8 am
    14    7   31 1
    15    8    9 2
    16    8   10 1
    17   10   11 1
    18   10   32 1
    19   10   33 1
    20   11   12 am
    21   11   34 1
    22   12   13 2
    23   12   14 am
    24   14   15 1
    25   14   35 1
    26   15   16 1
    27   15   36 1
    28   15   37 1
    29   16   17 1
    30   16   38 1
    31   16   39 1
    32   17   25 1
    33   17   18 1
    34   17   48 1
    35   18   19 1
    36   18   40 1
    37   18   41 1
    38   19   20 1
    39   19   42 1
    40   19   43 1
    41   20   24 1
    42   20   21 2
    43   21   22 1
    44   21   25 1
    45   22   23 2
    46   22   44 1
    47   23   24 1
    48   23   45 1
    49   25   46 1
    50   25   47 1
