@<TRIPOS>MOLECULE
ZINC20984454
   43    46     0     0     0
SMALL
USER_CHARGES
N-[5-[(4-oxo-6,7,8,9-tetrahydropyrimido[2,1-b][1,3]benzothiazol-2-yl)methylsulfanyl]-1,3,4-thiadiazol-2-yl]propanamide
@<TRIPOS>ATOM
      1 C1         -0.9796    6.3521    0.0449 C.3       1 <0>        -0.1441
      2 C2          0.3874    5.6652    0.0280 C.3       1 <0>        -0.1352
      3 C3          0.1984    4.1701    0.0222 C.2       1 <0>         0.5073
      4 O1         -0.9198    3.7002    0.0308 O.2       1 <0>        -0.4685
      5 N1          1.2718    3.3552    0.0076 N.am      1 <0>        -0.6287
      6 C4          1.0971    1.9735    0.0022 C.2       1 <0>         0.2930
      7 N2         -0.0150    1.2570    0.0090 N.2       1 <0>        -0.2775
      8 N3          0.0021   -0.0041    0.0020 N.2       1 <0>        -0.2546
      9 C5          1.1361   -0.6892   -0.0125 C.2       1 <0>         0.0039
     10 S1          2.3135    0.6598   -0.0165 S.3       1 <0>         0.0413
     11 S2          1.4079   -2.4301   -0.0236 S.3       1 <0>         0.0867
     12 C6         -0.2634   -3.1352   -0.0113 C.3       1 <0>        -0.0728
     13 C7         -0.1740   -4.6395   -0.0195 C.2       1 <0>         0.2145
     14 C8         -0.4227   -5.3634    1.1271 C.2       1 <0>        -0.2752
     15 C9         -0.3404   -6.7559    1.0989 C.2       1 <0>         0.5259
     16 O2         -0.5653   -7.4026    2.1098 O.2       1 <0>        -0.5106
     17 N4         -0.0020   -7.3945   -0.0614 N.am      1 <0>        -0.4755
     18 C10         0.1213   -8.7680   -0.2204 C.2       1 <0>         0.0730
     19 C11         0.4606   -9.2402   -1.4265 C.2       1 <0>        -0.1653
     20 S3          0.6300   -7.7805   -2.4203 S.3       1 <0>         0.1568
     21 C12         0.2321   -6.6000   -1.1481 C.2       1 <0>         0.3386
     22 N5          0.1516   -5.2925   -1.1324 N.2       1 <0>        -0.4902
     23 C13         0.6513  -10.6652   -1.8367 C.3       1 <0>        -0.0355
     24 C14         0.7555  -11.5243   -0.5675 C.3       1 <0>        -0.1185
     25 C15        -0.3770  -11.1276    0.3843 C.3       1 <0>        -0.1233
     26 C16        -0.1206   -9.7275    0.9431 C.3       1 <0>        -0.0574
     27 H1         -0.8415    7.4434    0.0491 H         1 <0>         0.0694
     28 H2         -1.5312    6.0488    0.9470 H         1 <0>         0.0653
     29 H3         -1.5488    6.0580   -0.8492 H         1 <0>         0.0653
     30 H4          0.9390    5.9685   -0.8741 H         1 <0>         0.1033
     31 H5          0.9567    5.9593    0.9221 H         1 <0>         0.1033
     32 H6          2.2858    3.7814   -0.0001 H         1 <0>         0.4575
     33 H7         -0.7943   -2.8043    0.8935 H         1 <0>         0.1292
     34 H8         -0.8112   -2.7956   -0.9027 H         1 <0>         0.1309
     35 H9         -0.6843   -4.8546    2.0431 H         1 <0>         0.1696
     36 H10        -0.2075  -10.9905   -2.4423 H         1 <0>         0.0955
     37 H11         1.5734  -10.7558   -2.4296 H         1 <0>         0.0943
     38 H12         0.6646  -12.5872   -0.8357 H         1 <0>         0.0844
     39 H13         1.7287  -11.3497   -0.0854 H         1 <0>         0.0737
     40 H14        -1.3324  -11.1313   -0.1609 H         1 <0>         0.0718
     41 H15        -0.4263  -11.8466    1.2154 H         1 <0>         0.0832
     42 H16         0.7651   -9.7436    1.5953 H         1 <0>         0.0916
     43 H17        -0.9947   -9.3913    1.5200 H         1 <0>         0.1034
@<TRIPOS>BOND
     1    1    2 1
     2    1   27 1
     3    1   28 1
     4    1   29 1
     5    2    3 1
     6    2   30 1
     7    2   31 1
     8    3    4 2
     9    3    5 am
    10    5    6 1
    11    5   32 1
    12    6   10 1
    13    6    7 2
    14    7    8 1
    15    8    9 2
    16    9   10 1
    17    9   11 1
    18   11   12 1
    19   12   13 1
    20   12   33 1
    21   12   34 1
    22   13   22 1
    23   13   14 2
    24   14   15 1
    25   14   35 1
    26   15   16 2
    27   15   17 am
    28   17   21 1
    29   17   18 1
    30   18   26 1
    31   18   19 2
    32   19   20 1
    33   19   23 1
    34   20   21 1
    35   21   22 2
    36   23   24 1
    37   23   36 1
    38   23   37 1
    39   24   25 1
    40   24   38 1
    41   24   39 1
    42   25   26 1
    43   25   40 1
    44   25   41 1
    45   26   42 1
    46   26   43 1
