@<TRIPOS>MOLECULE
ZINC14879790
   61    64     0     0     0
SMALL
USER_CHARGES
(1S)-N-(3-chloro-4-methoxy-phenyl)-6-[(3-ethoxy-2-hydroxy-phenyl)methyl]-6-azaspiro[2.5]octane-1-carboxamide
@<TRIPOS>ATOM
      1 C1          5.9807    2.2191   -0.0874 C.3       1 <0>        -0.1553
      2 C2          4.7726    1.2804   -0.0772 C.3       1 <0>         0.0504
      3 O1          3.5700    2.0520   -0.0566 O.3       1 <0>        -0.3008
      4 C3          2.3961    1.3656   -0.0453 C.ar      1 <0>         0.1196
      5 C4          2.4018   -0.0200   -0.0538 C.ar      1 <0>        -0.1692
      6 C5          1.2076   -0.7163   -0.0427 C.ar      1 <0>        -0.0764
      7 C6          0.0058   -0.0331   -0.0227 C.ar      1 <0>        -0.1204
      8 C7         -0.0070    1.3492   -0.0141 C.ar      1 <0>        -0.1438
      9 C8          1.1864    2.0532   -0.0256 C.ar      1 <0>         0.0900
     10 O2          1.1755    3.4130   -0.0176 O.3       1 <0>        -0.4911
     11 C9         -1.3190    2.0905    0.0015 C.3       1 <0>         0.0550
     12 C10        -1.4099    1.4826   -2.3397 C.3       1 <0>        -0.0043
     13 C11        -1.5302    2.0584   -3.7549 C.3       1 <0>        -0.1055
     14 C12        -2.8981    2.7343   -3.8938 C.3       1 <0>        -0.1335
     15 C13        -3.2320    3.7400   -2.7870 C.3       1 <0>        -0.1157
     16 C14        -3.0111    3.0648   -1.4291 C.3       1 <0>         0.0017
     17 C15        -3.4086    3.0289   -5.3028 C.3       1 <0>        -0.1138
     18 C16        -4.0445    1.9092   -4.4755 C.3       1 <0>        -0.1774
     19 H1         -3.8276    0.8816   -4.7674 H         1 <0>         0.1399
     20 C17        -5.4258    2.1503   -3.9233 C.2       1 <0>         0.5372
     21 O3         -6.1106    3.0453   -4.3718 O.2       1 <0>        -0.5024
     22 N1         -5.9003    1.3714   -2.9309 N.am      1 <0>        -0.6664
     23 C18        -7.2231    1.5214   -2.4942 C.ar      1 <0>         0.1067
     24 C19        -8.2207    1.8525   -3.4015 C.ar      1 <0>        -0.0688
     25 C20        -9.5245    1.9999   -2.9710 C.ar      1 <0>        -0.1762
     26 C21        -9.8381    1.8183   -1.6322 C.ar      1 <0>         0.1361
     27 C22        -8.8418    1.4873   -0.7243 C.ar      1 <0>        -0.0544
     28 C23        -7.5377    1.3335   -1.1552 C.ar      1 <0>        -0.0970
     29 Cl1        -9.2349    1.2595    0.9512 Cl        1 <0>        -0.0431
     30 O4        -11.1223    1.9641   -1.2090 O.3       1 <0>        -0.3018
     31 C24       -12.0964    2.3049   -2.1975 C.3       1 <0>         0.0225
     32 H2          5.9407    2.8531   -0.9731 H         1 <0>         0.0695
     33 H3          5.9642    2.8423    0.8067 H         1 <0>         0.0696
     34 H4          6.8980    1.6305   -0.1031 H         1 <0>         0.0861
     35 H5          4.8126    0.6463    0.8085 H         1 <0>         0.0681
     36 H6          4.7891    0.6572   -0.9713 H         1 <0>         0.0678
     37 H7          3.3393   -0.5560   -0.0694 H         1 <0>         0.1440
     38 H8          1.2134   -1.7962   -0.0494 H         1 <0>         0.1424
     39 H9         -0.9251   -0.5807   -0.0134 H         1 <0>         0.1389
     40 H10         1.1839    3.8013    0.8680 H         1 <0>         0.4002
     41 H11        -2.1074    1.4263    0.3555 H         1 <0>         0.1393
     42 H12        -1.2425    2.9505    0.6667 H         1 <0>         0.1343
     43 H13        -0.4119    1.0674   -2.1999 H         1 <0>         0.1330
     44 H14        -2.1530    0.6969   -2.2027 H         1 <0>         0.1287
     45 H15        -1.4436    1.2543   -4.4856 H         1 <0>         0.1157
     46 H16        -0.7412    2.7922   -3.9195 H         1 <0>         0.0997
     47 H17        -4.2732    4.0500   -2.8763 H         1 <0>         0.1147
     48 H18        -2.5824    4.6111   -2.8724 H         1 <0>         0.1028
     49 H19        -3.7154    2.2408   -1.3141 H         1 <0>         0.1252
     50 H20        -3.1686    3.7914   -0.6320 H         1 <0>         0.1335
     51 H21        -3.9893    3.9399   -5.4475 H         1 <0>         0.1193
     52 H22        -2.7733    2.7381   -6.1394 H         1 <0>         0.1183
     53 H23        -5.3259    0.7070   -2.5191 H         1 <0>         0.4077
     54 H24        -7.9770    1.9944   -4.4441 H         1 <0>         0.1421
     55 H25       -10.3003    2.2571   -3.6770 H         1 <0>         0.1452
     56 H26        -6.7630    1.0716   -0.4498 H         1 <0>         0.1396
     57 H27       -11.8297    3.2565   -2.6574 H         1 <0>         0.0605
     58 H28       -12.1262    1.5279   -2.9613 H         1 <0>         0.0606
     59 H29       -13.0762    2.3904   -1.7277 H         1 <0>         0.1088
     60 N2         -1.6173    2.5735   -1.3617 N.4       1 <0>        -0.3900
     61 H30        -0.9813    3.3473   -1.5876 H         1 <0>         0.4326
@<TRIPOS>BOND
     1    1    2 1
     2    1   32 1
     3    1   33 1
     4    1   34 1
     5    2    3 1
     6    2   35 1
     7    2   36 1
     8    3    4 1
     9    4    9 ar
    10    4    5 ar
    11    5    6 ar
    12    5   37 1
    13    6    7 ar
    14    6   38 1
    15    7    8 ar
    16    7   39 1
    17    8    9 ar
    18    8   11 1
    19    9   10 1
    20   10   40 1
    21   11   41 1
    22   11   42 1
    23   11   60 1
    24   12   13 1
    25   12   43 1
    26   12   44 1
    27   12   60 1
    28   13   14 1
    29   13   45 1
    30   13   46 1
    31   14   18 1
    32   14   15 1
    33   14   17 1
    34   15   16 1
    35   15   47 1
    36   15   48 1
    37   16   49 1
    38   16   50 1
    39   16   60 1
    40   17   18 1
    41   17   51 1
    42   17   52 1
    43   18   19 1
    44   18   20 1
    45   20   21 2
    46   20   22 am
    47   22   23 1
    48   22   53 1
    49   23   28 ar
    50   23   24 ar
    51   24   25 ar
    52   24   54 1
    53   25   26 ar
    54   25   55 1
    55   26   27 ar
    56   26   30 1
    57   27   28 ar
    58   27   29 1
    59   28   56 1
    60   30   31 1
    61   31   57 1
    62   31   58 1
    63   31   59 1
    64   60   61 1
