@<TRIPOS>MOLECULE
ZINC64410873
   49    51     0     0     0
SMALL
USER_CHARGES

@<TRIPOS>ATOM
      1 C1          1.0362    0.8875   -0.7240 C.3       1 <0>         0.0893
      2 N1          0.9863   -0.5697   -0.8667 N.pl3     1 <0>        -1.0113
      3 C2          2.1969   -1.3124   -1.2257 C.3       1 <0>         0.0893
      4 S1         -0.4386   -1.3773   -0.6223 S.o2      1 <0>         2.7780
      5 O1         -0.0948   -2.7115   -0.2748 O.2       1 <0>        -0.9559
      6 O2         -1.2342   -0.5522    0.2177 O.2       1 <0>        -0.9626
      7 N2         -1.2149   -1.4538   -2.0831 N.pl3     1 <0>        -1.0136
      8 C3         -2.1416   -0.3912   -2.5020 C.3       1 <0>         0.1250
      9 C4         -3.4606   -1.0391   -2.9365 C.3       1 <0>         0.0159
     10 N3         -3.1878   -2.0624   -3.9545 N.3       1 <0>        -0.5574
     11 C5         -2.3601   -3.1475   -3.4110 C.3       1 <0>         0.0441
     12 C6         -0.9913   -2.5830   -2.9986 C.3       1 <0>         0.1196
     13 C7         -4.4373   -2.5869   -4.5217 C.3       1 <0>         0.0206
     14 C8         -5.0064   -1.5784   -5.5216 C.3       1 <0>         0.2677
     15 H1         -5.8592   -2.0112   -6.0446 H         1 <0>         0.2353
     16 N4         -3.9712   -1.1854   -6.4851 N.pl3     1 <0>        -0.4340
     17 C9         -3.7935    0.0991   -6.3681 C.ar      1 <0>         0.3325
     18 C10        -2.9008    1.0412   -7.0597 C.ar      1 <0>        -0.0921
     19 C11        -2.9243    2.3469   -6.7334 C.ar      1 <0>        -0.0446
     20 C12        -3.8152    2.8673   -5.7043 C.ar      1 <0>         0.2973
     21 C13        -4.6669    2.0629   -5.0226 C.ar      1 <0>        -0.2346
     22 C14        -4.7041    0.6291   -5.3175 C.ar      1 <0>         0.3203
     23 N5         -5.4124   -0.3520   -4.8245 N.pl3     1 <0>        -0.5146
     24 O3         -3.7911    4.1933   -5.4204 O.3       1 <0>        -0.2389
     25 C15        -2.8763    4.9997   -6.1653 C.3       1 <0>        -0.0097
     26 H2          2.0494    1.2374   -0.9215 H         1 <0>         0.0880
     27 H3          0.3484    1.3459   -1.4346 H         1 <0>         0.0520
     28 H4          0.7478    1.1633    0.2904 H         1 <0>         0.0724
     29 H5          2.7278   -1.6021   -0.3188 H         1 <0>         0.0681
     30 H6          1.9223   -2.2056   -1.7869 H         1 <0>         0.0692
     31 H7          2.8415   -0.6822   -1.8384 H         1 <0>         0.0786
     32 H8         -2.3237    0.2859   -1.6675 H         1 <0>         0.1105
     33 H9         -1.7119    0.1607   -3.3380 H         1 <0>         0.0701
     34 H10        -3.9396   -1.5026   -2.0741 H         1 <0>         0.0774
     35 H11        -4.1197   -0.2777   -3.3536 H         1 <0>         0.0611
     36 H12        -2.8544   -3.5816   -2.5419 H         1 <0>         0.0694
     37 H13        -2.2211   -3.9152   -4.1721 H         1 <0>         0.1071
     38 H14        -0.4532   -2.2377   -3.8814 H         1 <0>         0.0811
     39 H15        -0.4126   -3.3556   -2.4925 H         1 <0>         0.1136
     40 H16        -4.2376   -3.5300   -5.0305 H         1 <0>         0.1535
     41 H17        -5.1587   -2.7516   -3.7213 H         1 <0>         0.1234
     42 H18        -2.2283    0.6865   -7.8267 H         1 <0>         0.2117
     43 H19        -2.2637    3.0284   -7.2488 H         1 <0>         0.2066
     44 H20        -5.3154    2.4778   -4.2651 H         1 <0>         0.2061
     45 H21        -2.9585    6.0369   -5.8404 H         1 <0>         0.1451
     46 H22        -1.8593    4.6456   -5.9967 H         1 <0>         0.0924
     47 H23        -3.1134    4.9317   -7.2271 H         1 <0>         0.0927
     48 H24        -3.5041   -1.7754   -7.0972 H         1 <0>         0.4933
     49 H25        -6.0829   -0.2832   -4.1269 H         1 <0>         0.4908
@<TRIPOS>BOND
     1    1    2 1
     2    1   26 1
     3    1   27 1
     4    1   28 1
     5    2    3 1
     6    2    4 1
     7    3   29 1
     8    3   30 1
     9    3   31 1
    10    4    5 2
    11    4    6 2
    12    4    7 1
    13    7   12 1
    14    7    8 1
    15    8    9 1
    16    8   32 1
    17    8   33 1
    18    9   10 1
    19    9   34 1
    20    9   35 1
    21   10   11 1
    22   10   13 1
    23   11   12 1
    24   11   36 1
    25   11   37 1
    26   12   38 1
    27   12   39 1
    28   13   14 1
    29   13   40 1
    30   13   41 1
    31   14   15 1
    32   14   23 1
    33   14   16 1
    34   16   17 2
    35   16   48 1
    36   17   22 ar
    37   17   18 ar
    38   18   19 ar
    39   18   42 1
    40   19   20 ar
    41   19   43 1
    42   20   21 ar
    43   20   24 1
    44   21   22 ar
    45   21   44 1
    46   22   23 2
    47   23   49 1
    48   24   25 1
    49   25   45 1
    50   25   46 1
    51   25   47 1
