@<TRIPOS>MOLECULE
ZINC48591686
   44    45     0     0     0
SMALL
USER_CHARGES

@<TRIPOS>ATOM
      1 C1          1.1508    1.7933   -0.3741 C.ar      1 <0>        -0.0962
      2 C2          0.1810    2.3117    0.4600 C.ar      1 <0>        -0.0789
      3 C3         -0.6317    1.4537    1.2039 C.ar      1 <0>        -0.0049
      4 C4         -0.4590    0.0729    1.1005 C.ar      1 <0>        -0.0741
      5 C5          0.5181   -0.4375    0.2597 C.ar      1 <0>         0.1384
      6 C6          1.3219    0.4257   -0.4766 C.ar      1 <0>        -0.1077
      7 N1          0.6952   -1.8196    0.1523 N.am      1 <0>        -0.6426
      8 C7         -0.3650   -2.6451    0.2582 C.2       1 <0>         0.5088
      9 O1         -1.4845   -2.1860    0.3533 O.2       1 <0>        -0.4908
     10 C8         -0.1621   -4.1248    0.2584 C.2       1 <0>         0.5155
     11 O2          0.9573   -4.5839    0.1633 O.2       1 <0>        -0.5110
     12 N2         -1.2223   -4.9503    0.3643 N.am      1 <0>        -0.6840
     13 C9         -1.0233   -6.4017    0.3645 C.3       1 <0>         0.1199
     14 H1         -0.1963   -6.6552   -0.2987 H         1 <0>         0.1128
     15 C10        -0.7011   -6.8721    1.7843 C.3       1 <0>         0.0665
     16 O3         -1.8270   -6.6348    2.6317 O.3       1 <0>        -0.5687
     17 C11        -2.2987   -7.0914   -0.1241 C.3       1 <0>         0.1434
     18 H2         -3.1234   -6.8464    0.5451 H         1 <0>         0.1349
     19 C12        -2.6241   -6.6171   -1.5170 C.ar      1 <0>        -0.0719
     20 C13        -2.0393   -7.2292   -2.6098 C.ar      1 <0>        -0.1088
     21 C14        -2.3378   -6.7941   -3.8875 C.ar      1 <0>        -0.0487
     22 C15        -3.2215   -5.7473   -4.0724 C.ar      1 <0>        -0.0470
     23 C16        -3.8071   -5.1359   -2.9796 C.ar      1 <0>        -0.0473
     24 C17        -3.5118   -5.5737   -1.7021 C.ar      1 <0>        -0.1071
     25 N3         -3.5404   -5.2809   -5.4405 N.pl3     1 <0>         0.0311
     26 O4         -3.0280   -5.8154   -6.3962 O.2       1 <0>        -0.1547
     27 O5         -4.3133   -4.3654   -5.6022 O.3       1 <0>        -0.1536
     28 O6         -2.1000   -8.5064   -0.1370 O.3       1 <0>        -0.5313
     29 C18        -1.6383    1.9890    2.0704 C.1       1 <0>         0.2505
     30 N4         -2.4369    2.4136    2.7578 N.1       1 <0>        -0.4045
     31 H3          1.7752    2.4585   -0.9520 H         1 <0>         0.1433
     32 H4          0.0508    3.3811    0.5375 H         1 <0>         0.1386
     33 H5         -1.0842   -0.5958    1.6735 H         1 <0>         0.1446
     34 H6          2.0825    0.0262   -1.1310 H         1 <0>         0.1383
     35 H7          1.5811   -2.1848    0.0016 H         1 <0>         0.4270
     36 H8         -2.1170   -4.5834    0.4403 H         1 <0>         0.4171
     37 H9         -0.4744   -7.9382    1.7712 H         1 <0>         0.0691
     38 H10         0.1606   -6.3220    2.1625 H         1 <0>         0.0581
     39 H11        -1.6934   -6.9095    3.5493 H         1 <0>         0.3879
     40 H12        -1.3489   -8.0470   -2.4654 H         1 <0>         0.1464
     41 H13        -1.8803   -7.2718   -4.7413 H         1 <0>         0.1569
     42 H14        -4.4972   -4.3178   -3.1241 H         1 <0>         0.1576
     43 H15        -3.9721   -5.0985   -0.8485 H         1 <0>         0.1494
     44 H16        -1.3179   -8.7893   -0.6304 H         1 <0>         0.3779
@<TRIPOS>BOND
     1    1    6 ar
     2    1    2 ar
     3    1   31 1
     4    2    3 ar
     5    2   32 1
     6    3    4 ar
     7    3   29 1
     8    4    5 ar
     9    4   33 1
    10    5    6 ar
    11    5    7 1
    12    6   34 1
    13    7    8 am
    14    7   35 1
    15    8    9 2
    16    8   10 1
    17   10   11 2
    18   10   12 am
    19   12   13 1
    20   12   36 1
    21   13   14 1
    22   13   15 1
    23   13   17 1
    24   15   16 1
    25   15   37 1
    26   15   38 1
    27   16   39 1
    28   17   18 1
    29   17   19 1
    30   17   28 1
    31   19   24 ar
    32   19   20 ar
    33   20   21 ar
    34   20   40 1
    35   21   22 ar
    36   21   41 1
    37   22   23 ar
    38   22   25 1
    39   23   24 ar
    40   23   42 1
    41   24   43 1
    42   25   26 2
    43   25   27 1
    44   28   44 1
    45   29   30 3
