@<TRIPOS>MOLECULE
ZINC03623060
   48    51     0     0     0
SMALL
USER_CHARGES

@<TRIPOS>ATOM
      1 C1          0.9731   -0.1885    4.6595 C.3       1 <0>         0.0205
      2 O1          0.8448   -1.3895    3.8957 O.3       1 <0>        -0.2792
      3 C2          1.5904   -2.4522    4.2891 C.ar      1 <0>         0.1914
      4 C3          2.4259   -2.3472    5.3914 C.ar      1 <0>        -0.2198
      5 C4          3.1846   -3.4295    5.7903 C.ar      1 <0>        -0.0464
      6 C5          3.1182   -4.6262    5.0953 C.ar      1 <0>        -0.1659
      7 C6          2.2933   -4.7483    3.9984 C.ar      1 <0>        -0.0456
      8 C7          1.5158   -3.6629    3.5873 C.ar      1 <0>        -0.1721
      9 C8          0.6261   -3.7884    2.4171 C.2       1 <0>         0.5463
     10 O2         -0.0450   -2.8398    2.0590 O.2       1 <0>        -0.4566
     11 N1          0.5573   -4.9545    1.7449 N.am      1 <0>        -0.7052
     12 C9         -0.3261   -5.0792    0.5829 C.3       1 <0>         0.1994
     13 C10        -0.3207   -6.4964    0.0604 C.2       1 <0>        -0.3692
     14 C11         0.6829   -7.3205   -0.4643 C.2       1 <0>         0.5876
     15 O3          1.8260   -6.9100   -0.5660 O.2       1 <0>        -0.4812
     16 N2          0.3712   -8.5737   -0.8564 N.am      1 <0>        -0.6504
     17 H1          1.0595   -9.1520   -1.2207 H         1 <0>         0.4441
     18 C12        -0.8920   -9.0228   -0.7428 C.2       1 <0>         0.7168
     19 O4         -1.1557  -10.1544   -1.1009 O.2       1 <0>        -0.5002
     20 N3         -1.8686   -8.2472   -0.2415 N.am      1 <0>        -0.4737
     21 C13        -1.5987   -6.9583    0.1725 C.2       1 <0>         0.4875
     22 N4         -2.4229   -5.9980    0.7077 N.am      1 <0>        -0.6388
     23 C14        -1.7704   -4.8551    0.9841 C.2       1 <0>         0.5372
     24 O5         -2.2437   -3.8453    1.4600 O.2       1 <0>        -0.3835
     25 C15        -3.1726   -8.7514   -0.1387 C.ar      1 <0>         0.0677
     26 C16        -3.5759   -9.4051    1.0178 C.ar      1 <0>        -0.0584
     27 C17        -4.8611   -9.9007    1.1174 C.ar      1 <0>        -0.1427
     28 C18        -5.7474   -9.7461    0.0647 C.ar      1 <0>         0.1332
     29 C19        -5.3470   -9.0944   -1.0897 C.ar      1 <0>        -0.1419
     30 C20        -4.0642   -8.5927   -1.1911 C.ar      1 <0>        -0.0582
     31 F1         -7.0041  -10.2320    0.1638 F         1 <0>        -0.1254
     32 C21         0.0872   -4.0956   -0.5138 C.3       1 <0>         0.4561
     33 F2          1.3954   -4.3758   -0.9227 F         1 <0>        -0.1528
     34 F3         -0.7795   -4.2224   -1.6047 F         1 <0>        -0.1780
     35 F4          0.0235   -2.7894   -0.0169 F         1 <0>        -0.1395
     36 H2          2.0080    0.1525    4.6292 H         1 <0>         0.0578
     37 H3          0.3248    0.5803    4.2393 H         1 <0>         0.1049
     38 H4          0.6846   -0.3824    5.6926 H         1 <0>         0.0571
     39 H5          2.4834   -1.4176    5.9380 H         1 <0>         0.1375
     40 H6          3.8339   -3.3426    6.6489 H         1 <0>         0.1322
     41 H7          3.7160   -5.4671    5.4146 H         1 <0>         0.1329
     42 H8          2.2451   -5.6830    3.4595 H         1 <0>         0.1313
     43 H9          1.0927   -5.7113    2.0305 H         1 <0>         0.4176
     44 H10        -3.3703   -6.1300    0.8686 H         1 <0>         0.4305
     45 H11        -2.8849   -9.5262    1.8390 H         1 <0>         0.1443
     46 H12        -5.1751  -10.4096    2.0168 H         1 <0>         0.1525
     47 H13        -6.0394   -8.9750   -1.9099 H         1 <0>         0.1530
     48 H14        -3.7537   -8.0807   -2.0898 H         1 <0>         0.1453
@<TRIPOS>BOND
     1    1    2 1
     2    1   36 1
     3    1   37 1
     4    1   38 1
     5    2    3 1
     6    3    8 ar
     7    3    4 ar
     8    4    5 ar
     9    4   39 1
    10    5    6 ar
    11    5   40 1
    12    6    7 ar
    13    6   41 1
    14    7    8 ar
    15    7   42 1
    16    8    9 1
    17    9   10 2
    18    9   11 am
    19   11   12 1
    20   11   43 1
    21   12   23 1
    22   12   13 1
    23   12   32 1
    24   13   21 2
    25   13   14 1
    26   14   15 2
    27   14   16 am
    28   16   17 1
    29   16   18 am
    30   18   19 2
    31   18   20 am
    32   20   21 1
    33   20   25 1
    34   21   22 1
    35   22   23 am
    36   22   44 1
    37   23   24 2
    38   25   30 ar
    39   25   26 ar
    40   26   27 ar
    41   26   45 1
    42   27   28 ar
    43   27   46 1
    44   28   29 ar
    45   28   31 1
    46   29   30 ar
    47   29   47 1
    48   30   48 1
    49   32   33 1
    50   32   34 1
    51   32   35 1
