@<TRIPOS>MOLECULE
ZINC67049263
   49    50     0     0     0
SMALL
USER_CHARGES

@<TRIPOS>ATOM
      1 C1         -2.6428   -3.4810   -2.7262 C.3       1 <0>        -0.1159
      2 C2         -2.1030   -2.6900   -1.5626 C.ar      1 <0>        -0.0659
      3 C3         -1.7505   -1.3635   -1.7333 C.ar      1 <0>        -0.1380
      4 C4         -1.2549   -0.6344   -0.6683 C.ar      1 <0>        -0.0947
      5 C5         -1.1104   -1.2291    0.5701 C.ar      1 <0>        -0.1545
      6 C6         -1.4634   -2.5605    0.7447 C.ar      1 <0>         0.1675
      7 C7         -1.9662   -3.2886   -0.3258 C.ar      1 <0>        -0.1227
      8 N1         -1.3181   -3.1659    1.9980 N.am      1 <0>        -0.6830
      9 C8         -1.0237   -4.4784    2.0824 C.2       1 <0>         0.7094
     10 O1         -0.7746   -5.1115    1.0747 O.2       1 <0>        -0.5694
     11 N2         -1.0055   -5.0891    3.2837 N.am      1 <0>        -0.7324
     12 C9         -0.6855   -6.5158    3.3754 C.3       1 <0>         0.1215
     13 C10        -0.7328   -6.9495    4.8178 C.2       1 <0>         0.5114
     14 O2         -1.0068   -6.1461    5.6840 O.2       1 <0>        -0.5097
     15 N3         -0.4706   -8.2303    5.1453 N.am      1 <0>        -0.6673
     16 C11        -0.6336   -8.6608    6.4616 C.ar      1 <0>         0.1759
     17 C12        -1.6203   -8.0920    7.2607 C.ar      1 <0>        -0.1370
     18 C13        -1.7839   -8.5147    8.5607 C.ar      1 <0>        -0.0345
     19 C14        -0.9578   -9.5165    9.0772 C.ar      1 <0>        -0.1609
     20 C15         0.0320  -10.0861    8.2716 C.ar      1 <0>        -0.0640
     21 C16         0.1871   -9.6622    6.9710 C.ar      1 <0>        -0.1604
     22 C17        -1.1300   -9.9718   10.4706 C.2       1 <0>         0.5748
     23 O3         -2.0931   -9.6046   11.1155 O.2       1 <0>        -0.5175
     24 N4         -0.2197  -10.7946   11.0281 N.am      1 <0>        -0.4800
     25 C18        -0.4693  -11.3751   12.3498 C.3       1 <0>         0.0826
     26 O4          0.9780  -11.0980   10.3363 O.3       1 <0>        -0.1412
     27 C19         2.0813  -10.2614   10.6898 C.3       1 <0>        -0.0118
     28 H1         -3.7277   -3.3819   -2.7609 H         1 <0>         0.0714
     29 H2         -2.2135   -3.1019   -3.6536 H         1 <0>         0.0680
     30 H3         -2.3775   -4.5314   -2.6058 H         1 <0>         0.0681
     31 H4         -1.8622   -0.8964   -2.7006 H         1 <0>         0.1231
     32 H5         -0.9802    0.4011   -0.8048 H         1 <0>         0.1269
     33 H6         -0.7228   -0.6591    1.4016 H         1 <0>         0.1245
     34 H7         -2.2462   -4.3231   -0.1920 H         1 <0>         0.1359
     35 H8         -1.4293   -2.6409    2.8061 H         1 <0>         0.4093
     36 H9         -1.2043   -4.5840    4.0876 H         1 <0>         0.4106
     37 H10        -1.4123   -7.0889    2.7996 H         1 <0>         0.1080
     38 H11         0.3135   -6.6905    2.9760 H         1 <0>         0.1062
     39 H12        -0.1685   -8.8527    4.4654 H         1 <0>         0.4184
     40 H13        -2.2584   -7.3177    6.8609 H         1 <0>         0.1421
     41 H14        -2.5495   -8.0722    9.1807 H         1 <0>         0.1394
     42 H15         0.6723  -10.8603    8.6679 H         1 <0>         0.1659
     43 H16         0.9493  -10.1045    6.3468 H         1 <0>         0.1336
     44 H17        -0.9903  -12.3258   12.2366 H         1 <0>         0.0692
     45 H18         0.4800  -11.5394   12.8596 H         1 <0>         0.0782
     46 H19        -1.0833  -10.6919   12.9366 H         1 <0>         0.0916
     47 H20         2.2897  -10.3656   11.7546 H         1 <0>         0.0585
     48 H21         2.9600  -10.5576   10.1169 H         1 <0>         0.1118
     49 H22         1.8357   -9.2229   10.4675 H         1 <0>         0.0568
@<TRIPOS>BOND
     1    1    2 1
     2    1   28 1
     3    1   29 1
     4    1   30 1
     5    2    7 ar
     6    2    3 ar
     7    3    4 ar
     8    3   31 1
     9    4    5 ar
    10    4   32 1
    11    5    6 ar
    12    5   33 1
    13    6    7 ar
    14    6    8 1
    15    7   34 1
    16    8    9 am
    17    8   35 1
    18    9   10 2
    19    9   11 am
    20   11   12 1
    21   11   36 1
    22   12   13 1
    23   12   37 1
    24   12   38 1
    25   13   14 2
    26   13   15 am
    27   15   16 1
    28   15   39 1
    29   16   21 ar
    30   16   17 ar
    31   17   18 ar
    32   17   40 1
    33   18   19 ar
    34   18   41 1
    35   19   20 ar
    36   19   22 1
    37   20   21 ar
    38   20   42 1
    39   21   43 1
    40   22   23 2
    41   22   24 am
    42   24   25 1
    43   24   26 1
    44   25   44 1
    45   25   45 1
    46   25   46 1
    47   26   27 1
    48   27   47 1
    49   27   48 1
    50   27   49 1
