@<TRIPOS>MOLECULE
ZINC08558921
   52    53     0     0     0
SMALL
USER_CHARGES

@<TRIPOS>ATOM
      1 C1          0.3066    1.6147    0.3415 C.3       1 <0>        -0.1837
      2 C2         -0.1982    0.2669   -0.1774 C.3       1 <0>         0.0756
      3 H1          0.1751   -0.5320    0.4633 H         1 <0>         0.1123
      4 C3          0.2953    0.0538   -1.5852 C.2       1 <0>         0.5195
      5 O1         -0.4954   -0.0012   -2.5032 O.2       1 <0>        -0.5077
      6 N1          1.6154   -0.0757   -1.8242 N.am      1 <0>        -0.5148
      7 N2          2.0742   -0.2738   -3.1330 N.am      1 <0>        -0.5182
      8 C4          3.3943   -0.4034   -3.3720 C.2       1 <0>         0.5686
      9 O2          4.1870   -0.3483   -2.4517 O.2       1 <0>        -0.5338
     10 C5          3.8776   -0.6121   -4.7509 C.ar      1 <0>        -0.1504
     11 C6          2.9683   -0.6698   -5.8105 C.ar      1 <0>        -0.0629
     12 C7          3.4226   -0.8641   -7.0955 C.ar      1 <0>        -0.1266
     13 C8          4.7852   -1.0029   -7.3398 C.ar      1 <0>         0.1800
     14 C9          5.6932   -0.9464   -6.2871 C.ar      1 <0>        -0.1520
     15 C10         5.2461   -0.7466   -5.0004 C.ar      1 <0>        -0.0303
     16 N3          5.2419   -1.1996   -8.6425 N.am      1 <0>        -0.6763
     17 C11         4.5307   -1.9600   -9.4983 C.2       1 <0>         0.5173
     18 O3          3.4542   -2.4061   -9.1623 O.2       1 <0>        -0.5115
     19 C12         5.0732   -2.2560  -10.8728 C.3       1 <0>        -0.1124
     20 C13         6.4086   -2.9921  -10.7463 C.3       1 <0>        -0.1475
     21 C14         4.0781   -3.1324  -11.6360 C.3       1 <0>        -0.1363
     22 O4         -1.6272    0.2574   -0.1670 O.3       1 <0>        -0.2706
     23 C15        -2.2335   -0.0755    1.0028 C.ar      1 <0>         0.1835
     24 C16        -3.6123   -0.2198    1.0543 C.ar      1 <0>        -0.1444
     25 C17        -4.2262   -0.5587    2.2446 C.ar      1 <0>        -0.0120
     26 C18        -3.4676   -0.7541    3.3839 C.ar      1 <0>        -0.0881
     27 C19        -2.0933   -0.6104    3.3353 C.ar      1 <0>        -0.0092
     28 C20        -1.4741   -0.2772    2.1462 C.ar      1 <0>        -0.2144
     29 N4         -4.1278   -1.1171    4.6578 N.pl3     1 <0>         0.0382
     30 O5         -5.3295   -1.2426    4.7016 O.2       1 <0>        -0.1595
     31 O6         -3.4655   -1.2882    5.6547 O.3       1 <0>        -0.1616
     32 H2          1.3966    1.6220    0.3336 H         1 <0>         0.0879
     33 H3         -0.0667    2.4136   -0.2992 H         1 <0>         0.0837
     34 H4         -0.0503    1.7689    1.3598 H         1 <0>         0.0847
     35 H5          2.2478   -0.0318   -1.0900 H         1 <0>         0.4348
     36 H6          1.4418   -0.3178   -3.8672 H         1 <0>         0.4338
     37 H7          1.9104   -0.5625   -5.6215 H         1 <0>         0.1305
     38 H8          2.7204   -0.9092   -7.9148 H         1 <0>         0.1462
     39 H9          6.7502   -1.0552   -6.4800 H         1 <0>         0.1377
     40 H10         5.9517   -0.6983   -4.1842 H         1 <0>         0.1444
     41 H11         6.0715   -0.7892   -8.9328 H         1 <0>         0.4152
     42 H12         5.2233   -1.3214  -11.4132 H         1 <0>         0.1031
     43 H13         6.8010   -3.2062  -11.7405 H         1 <0>         0.0737
     44 H14         7.1175   -2.3678  -10.2026 H         1 <0>         0.0603
     45 H15         6.2585   -3.9267  -10.2059 H         1 <0>         0.0633
     46 H16         3.1268   -2.6080  -11.7261 H         1 <0>         0.0639
     47 H17         4.4705   -3.3465  -12.6301 H         1 <0>         0.0665
     48 H18         3.9280   -4.0670  -11.0956 H         1 <0>         0.0642
     49 H19        -4.2053   -0.0669    0.1647 H         1 <0>         0.1592
     50 H20        -5.2996   -0.6708    2.2853 H         1 <0>         0.1630
     51 H21        -1.5029   -0.7632    4.2267 H         1 <0>         0.1588
     52 H22        -0.4001   -0.1695    2.1077 H         1 <0>         0.1542
@<TRIPOS>BOND
     1    1    2 1
     2    1   32 1
     3    1   33 1
     4    1   34 1
     5    2    3 1
     6    2    4 1
     7    2   22 1
     8    4    5 2
     9    4    6 am
    10    6    7 1
    11    6   35 1
    12    7    8 am
    13    7   36 1
    14    8    9 2
    15    8   10 1
    16   10   15 ar
    17   10   11 ar
    18   11   12 ar
    19   11   37 1
    20   12   13 ar
    21   12   38 1
    22   13   14 ar
    23   13   16 1
    24   14   15 ar
    25   14   39 1
    26   15   40 1
    27   16   17 am
    28   16   41 1
    29   17   18 2
    30   17   19 1
    31   19   20 1
    32   19   21 1
    33   19   42 1
    34   20   43 1
    35   20   44 1
    36   20   45 1
    37   21   46 1
    38   21   47 1
    39   21   48 1
    40   22   23 1
    41   23   28 ar
    42   23   24 ar
    43   24   25 ar
    44   24   49 1
    45   25   26 ar
    46   25   50 1
    47   26   27 ar
    48   26   29 1
    49   27   28 ar
    50   27   51 1
    51   28   52 1
    52   29   30 2
    53   29   31 1
