@<TRIPOS>MOLECULE
ZINC65104222
   48    51     0     0     0
SMALL
USER_CHARGES

@<TRIPOS>ATOM
      1 C1         -1.4487    1.6846    0.1341 C.3       1 <0>        -0.0911
      2 C2         -0.7443    0.3537    0.1949 C.2       1 <0>         0.1784
      3 C3         -0.1533   -0.2059   -0.9390 C.2       1 <0>        -0.3577
      4 C4          0.4593   -1.4420   -0.7166 C.2       1 <0>         0.1306
      5 S1          0.1860   -1.7045    0.9179 S.3       1 <0>         0.3280
      6 N1         -0.6590   -0.3159    1.3084 N.2       1 <0>        -0.4821
      7 N2          1.1243   -2.2478   -1.6185 N.pl3     1 <0>        -0.6778
      8 C5          1.7010   -3.5203   -1.1773 C.3       1 <0>         0.0745
      9 C6         -0.1740    0.4475   -2.2523 C.2       1 <0>         0.6095
     10 O1          0.7220    1.2084   -2.5676 O.2       1 <0>        -0.5030
     11 N3         -1.1854    0.2052   -3.1095 N.am      1 <0>        -0.6715
     12 C7         -1.2568    0.9004   -4.3211 C.ar      1 <0>         0.1829
     13 C8         -0.0907    1.2337   -4.9995 C.ar      1 <0>        -0.1163
     14 C9         -0.1587    1.9190   -6.1942 C.ar      1 <0>        -0.0603
     15 C10        -1.3984    2.2770   -6.7214 C.ar      1 <0>        -0.0789
     16 C11        -2.5667    1.9412   -6.0394 C.ar      1 <0>        -0.0782
     17 C12        -2.4940    1.2516   -4.8475 C.ar      1 <0>        -0.1360
     18 C13        -1.4741    3.0148   -8.0065 C.2       1 <0>         0.0934
     19 C14        -0.4189    3.3985   -8.7743 C.2       1 <0>         0.0281
     20 N4         -0.9394    4.0419   -9.8563 N.pl3     1 <0>        -0.3989
     21 C15        -2.2882    4.0380   -9.7259 C.cat     1 <0>         0.3127
     22 N5         -2.6029    3.4204   -8.6259 N.pl3     1 <0>        -0.4760
     23 C16        -3.2343    4.6599  -10.7264 C.3       1 <0>        -0.0698
     24 C17        -2.4261    5.5975  -11.6322 C.3       1 <0>        -0.1318
     25 C18        -1.1827    4.8612  -12.1394 C.3       1 <0>        -0.1483
     26 C19        -0.2092    4.6409  -10.9765 C.3       1 <0>         0.0903
     27 H1         -0.7354    2.4828    0.3393 H         1 <0>         0.0891
     28 H2         -1.8752    1.8249   -0.8591 H         1 <0>         0.0714
     29 H3         -2.2448    1.7086    0.8781 H         1 <0>         0.0878
     30 H4          1.2098   -1.9717   -2.5444 H         1 <0>         0.4103
     31 H5          0.9110   -4.1605   -0.7847 H         1 <0>         0.0717
     32 H6          2.1822   -4.0133   -2.0220 H         1 <0>         0.0932
     33 H7          2.4389   -3.3336   -0.3971 H         1 <0>         0.0716
     34 H8         -1.8637   -0.4512   -2.8863 H         1 <0>         0.4188
     35 H9          0.8695    0.9561   -4.5906 H         1 <0>         0.1527
     36 H10         0.7478    2.1784   -6.7207 H         1 <0>         0.1366
     37 H11        -3.5283    2.2176   -6.4461 H         1 <0>         0.1254
     38 H12        -3.3991    0.9879   -4.3206 H         1 <0>         0.1412
     39 H13         0.6269    3.2271   -8.5664 H         1 <0>         0.2241
     40 H14        -3.6994    3.8786  -11.3275 H         1 <0>         0.1271
     41 H15        -4.0029    5.2277  -10.2019 H         1 <0>         0.1251
     42 H16        -3.0395    5.9028  -12.4799 H         1 <0>         0.1093
     43 H17        -2.1222    6.4780  -11.0661 H         1 <0>         0.0858
     44 H18        -1.4758    3.8972  -12.5553 H         1 <0>         0.0887
     45 H19        -0.6971    5.4576  -12.9117 H         1 <0>         0.1162
     46 H20         0.2132    5.5971  -10.6676 H         1 <0>         0.1197
     47 H21         0.5905    3.9706  -11.2914 H         1 <0>         0.1248
     48 H22        -3.5053    3.2762   -8.3007 H         1 <0>         0.4588
@<TRIPOS>BOND
     1    1    2 1
     2    1   27 1
     3    1   28 1
     4    1   29 1
     5    2    6 2
     6    2    3 1
     7    3    4 2
     8    3    9 1
     9    4    5 1
    10    4    7 1
    11    5    6 1
    12    7    8 1
    13    7   30 1
    14    8   31 1
    15    8   32 1
    16    8   33 1
    17    9   10 2
    18    9   11 am
    19   11   12 1
    20   11   34 1
    21   12   17 ar
    22   12   13 ar
    23   13   14 ar
    24   13   35 1
    25   14   15 ar
    26   14   36 1
    27   15   16 ar
    28   15   18 1
    29   16   17 ar
    30   16   37 1
    31   17   38 1
    32   18   22 1
    33   18   19 2
    34   19   20 1
    35   19   39 1
    36   20   26 1
    37   20   21 1
    38   21   22 2
    39   21   23 1
    40   22   48 1
    41   23   24 1
    42   23   40 1
    43   23   41 1
    44   24   25 1
    45   24   42 1
    46   24   43 1
    47   25   26 1
    48   25   44 1
    49   25   45 1
    50   26   46 1
    51   26   47 1
