@<TRIPOS>MOLECULE
ZINC63732731
   46    49     0     0     0
SMALL
USER_CHARGES

@<TRIPOS>ATOM
      1 C1         -0.0173    1.4248    0.0099 C.3       1 <0>        -0.0105
      2 O1          0.0021   -0.0041    0.0020 O.3       1 <0>        -0.2372
      3 C2          0.6045   -0.6058   -1.0535 C.ar      1 <0>         0.2952
      4 C3          1.1933    0.2210   -2.0990 C.ar      1 <0>        -0.0340
      5 C4          1.8043   -0.3166   -3.1713 C.ar      1 <0>        -0.0971
      6 C5          1.8896   -1.7784   -3.3069 C.ar      1 <0>         0.3185
      7 N1          2.4117   -2.5440   -4.2215 N.pl3     1 <0>        -0.4532
      8 C6          2.1879   -3.9361   -3.8138 C.3       1 <0>         0.2055
      9 H1          3.1425   -4.4454   -3.6817 H         1 <0>         0.2624
     10 N2          1.4645   -3.8830   -2.5376 N.pl3     1 <0>        -0.5064
     11 C7          1.2893   -2.6240   -2.2399 C.ar      1 <0>         0.3104
     12 C8          0.6472   -1.9597   -1.1039 C.ar      1 <0>        -0.2277
     13 S1          1.1908   -4.7974   -5.0607 S.3       1 <0>         0.1240
     14 C9         -0.3387   -3.8259   -5.1471 C.3       1 <0>        -0.1215
     15 C10        -1.2684   -4.4418   -6.1607 C.2       1 <0>         0.3864
     16 N3         -0.8776   -5.5108   -6.7852 N.2       1 <0>        -0.4928
     17 C11        -1.6600   -6.1207   -7.7107 C.ar      1 <0>         0.1221
     18 C12        -1.2384   -7.2706   -8.3810 C.ar      1 <0>        -0.0298
     19 C13        -2.0764   -7.8592   -9.3206 C.ar      1 <0>        -0.0694
     20 C14        -3.3336   -7.3069   -9.5961 C.ar      1 <0>        -0.0584
     21 C15        -3.7558   -6.1823   -8.9460 C.ar      1 <0>        -0.0495
     22 C16        -2.9308   -5.5769   -7.9999 C.ar      1 <0>        -0.1496
     23 C17        -3.3432   -4.3638   -7.2736 C.2       1 <0>         0.5538
     24 O2         -4.4250   -3.8437   -7.4746 O.2       1 <0>        -0.4695
     25 N4         -2.4747   -3.8531   -6.3701 N.am      1 <0>        -0.6470
     26 C18        -1.6371   -9.0779  -10.0354 C.2       1 <0>         0.5027
     27 O3         -0.5477   -9.5603   -9.8002 O.2       1 <0>        -0.4881
     28 O4         -2.4454   -9.6523  -10.9469 O.3       1 <0>        -0.3425
     29 C19        -1.9570  -10.8265  -11.5986 C.3       1 <0>         0.0323
     30 H2          1.0053    1.8021    0.0021 H         1 <0>         0.0938
     31 H3         -0.5445    1.7859   -0.8732 H         1 <0>         0.0933
     32 H4         -0.5275    1.7763    0.9067 H         1 <0>         0.1458
     33 H5          1.1374    1.2960   -2.0113 H         1 <0>         0.2086
     34 H6          2.2303    0.3236   -3.9296 H         1 <0>         0.2143
     35 H7          0.2057   -2.5460   -0.3116 H         1 <0>         0.2078
     36 H8         -0.8204   -3.8190   -4.1693 H         1 <0>         0.1344
     37 H9         -0.1036   -2.8037   -5.4436 H         1 <0>         0.1304
     38 H10        -0.2693   -7.6987   -8.1715 H         1 <0>         0.1604
     39 H11        -3.9746   -7.7740  -10.3291 H         1 <0>         0.1624
     40 H12        -4.7266   -5.7630   -9.1650 H         1 <0>         0.1588
     41 H13        -1.0361  -10.5898  -12.1316 H         1 <0>         0.0674
     42 H14        -1.7584  -11.5987  -10.8554 H         1 <0>         0.0675
     43 H15        -2.7039  -11.1867  -12.3061 H         1 <0>         0.1130
     44 H16         2.8657   -2.2482   -5.0260 H         1 <0>         0.4966
     45 H17         1.1708   -4.6435   -2.0119 H         1 <0>         0.4955
     46 H18        -2.7141   -3.0571   -5.8701 H         1 <0>         0.4207
@<TRIPOS>BOND
     1    1    2 1
     2    1   30 1
     3    1   31 1
     4    1   32 1
     5    2    3 1
     6    3   12 ar
     7    3    4 ar
     8    4    5 ar
     9    4   33 1
    10    5    6 ar
    11    5   34 1
    12    6   11 ar
    13    6    7 2
    14    7    8 1
    15    7   44 1
    16    8    9 1
    17    8   10 1
    18    8   13 1
    19   10   11 2
    20   10   45 1
    21   11   12 ar
    22   12   35 1
    23   13   14 1
    24   14   15 1
    25   14   36 1
    26   14   37 1
    27   15   25 1
    28   15   16 2
    29   16   17 1
    30   17   22 ar
    31   17   18 ar
    32   18   19 ar
    33   18   38 1
    34   19   20 ar
    35   19   26 1
    36   20   21 ar
    37   20   39 1
    38   21   22 ar
    39   21   40 1
    40   22   23 1
    41   23   24 2
    42   23   25 am
    43   25   46 1
    44   26   27 2
    45   26   28 1
    46   28   29 1
    47   29   41 1
    48   29   42 1
    49   29   43 1
