@<TRIPOS>MOLECULE
ZINC38046233
   38    40     0     0     0
SMALL
USER_CHARGES

@<TRIPOS>ATOM
      1 C1          0.0251    1.3888    0.2865 C.ar      1 <0>         0.0419
      2 C2          1.1927    2.0824    0.0553 C.ar      1 <0>        -0.1974
      3 C3          2.3746    1.4132   -0.2388 C.ar      1 <0>         0.2434
      4 C4          2.3664    0.0221   -0.2988 C.ar      1 <0>        -0.2234
      5 C5          1.1917   -0.6762   -0.0670 C.ar      1 <0>         0.3143
      6 C6          0.0181    0.0076    0.2275 C.ar      1 <0>        -0.1454
      7 N1         -1.2349   -0.7402    0.4759 N.pl3     1 <0>         0.0473
      8 O1         -2.2893   -0.3020    0.0784 O.2       1 <0>        -0.1477
      9 O2         -1.2041   -1.7892    1.0762 O.3       1 <0>        -0.1795
     10 N2          1.1878   -2.0715   -0.1281 N.pl3     1 <0>        -0.7237
     11 C7          2.4458   -2.8004   -0.3087 C.3       1 <0>         0.1219
     12 C8          2.1639   -4.3038   -0.3418 C.3       1 <0>        -0.1365
     13 H1          1.4232   -4.5187   -1.1121 H         1 <0>         0.0891
     14 C9          3.4590   -5.0608   -0.6516 C.3       1 <0>        -0.1142
     15 C10         3.1811   -6.5664   -0.6052 C.3       1 <0>        -0.1564
     16 C11         2.6099   -6.9299    0.7679 C.3       1 <0>         0.0561
     17 O3          1.4243   -6.1685    1.0059 O.3       1 <0>        -0.3769
     18 C12         1.6306   -4.7544    1.0206 C.3       1 <0>         0.0631
     19 N3          3.4115    2.3272   -0.4307 N.am      1 <0>        -0.6579
     20 C13         3.0028    3.5986   -0.2831 C.2       1 <0>         0.5325
     21 O4          3.6884    4.5930   -0.3935 O.2       1 <0>        -0.4850
     22 C14         1.5257    3.5569    0.0458 C.3       1 <0>        -0.1051
     23 H2         -0.8839    1.9240    0.5183 H         1 <0>         0.1549
     24 H3          3.2762   -0.5133   -0.5265 H         1 <0>         0.1480
     25 H4          0.3522   -2.5580   -0.0510 H         1 <0>         0.4150
     26 H5          2.9100   -2.4970   -1.2471 H         1 <0>         0.0741
     27 H6          3.1183   -2.5749    0.5189 H         1 <0>         0.0747
     28 H7          3.8133   -4.7858   -1.6451 H         1 <0>         0.0725
     29 H8          4.2162   -4.8067    0.0901 H         1 <0>         0.0691
     30 H9          2.4606   -6.8278   -1.3802 H         1 <0>         0.0737
     31 H10         4.1093   -7.1134   -0.7701 H         1 <0>         0.0781
     32 H11         2.3702   -7.9930    0.7920 H         1 <0>         0.0964
     33 H12         3.3469   -6.7057    1.5390 H         1 <0>         0.0516
     34 H13         2.3539   -4.5016    1.7959 H         1 <0>         0.0541
     35 H14         0.6862   -4.2504    1.2261 H         1 <0>         0.0993
     36 H15         4.3228    2.0737   -0.6456 H         1 <0>         0.4191
     37 H16         0.9489    4.0737   -0.7212 H         1 <0>         0.1299
     38 H17         1.3401    3.9966    1.0257 H         1 <0>         0.1289
@<TRIPOS>BOND
     1    1    6 ar
     2    1    2 ar
     3    1   23 1
     4    2   22 1
     5    2    3 ar
     6    3    4 ar
     7    3   19 1
     8    4    5 ar
     9    4   24 1
    10    5    6 ar
    11    5   10 1
    12    6    7 1
    13    7    8 2
    14    7    9 1
    15   10   11 1
    16   10   25 1
    17   11   12 1
    18   11   26 1
    19   11   27 1
    20   12   13 1
    21   12   18 1
    22   12   14 1
    23   14   15 1
    24   14   28 1
    25   14   29 1
    26   15   16 1
    27   15   30 1
    28   15   31 1
    29   16   17 1
    30   16   32 1
    31   16   33 1
    32   17   18 1
    33   18   34 1
    34   18   35 1
    35   19   20 am
    36   19   36 1
    37   20   21 2
    38   20   22 1
    39   22   37 1
    40   22   38 1
