@<TRIPOS>MOLECULE
ZINC66899744
   53    56     0     0     0
SMALL
USER_CHARGES

@<TRIPOS>ATOM
      1 C1          1.7689   -2.2607    2.2061 C.3       1 <0>        -0.1134
      2 C2          0.8497   -1.9302    1.0586 C.ar      1 <0>        -0.0731
      3 C3          0.9270   -2.6493   -0.1184 C.ar      1 <0>        -0.0527
      4 C4          0.0840   -2.3467   -1.1717 C.ar      1 <0>        -0.1029
      5 C5         -0.8390   -1.3238   -1.0508 C.ar      1 <0>        -0.0443
      6 C6         -0.9215   -0.6015    0.1233 C.ar      1 <0>        -0.0524
      7 C7         -0.0797   -0.9065    1.1852 C.ar      1 <0>         0.1864
      8 N1         -0.1644   -0.1800    2.3781 N.am      1 <0>        -0.6480
      9 C8         -0.3562   -0.8234    3.5467 C.2       1 <0>         0.5079
     10 O1         -0.5149   -2.0258    3.5581 O.2       1 <0>        -0.5055
     11 C9         -0.3734   -0.0489    4.8393 C.3       1 <0>        -0.0275
     12 N2         -0.5973   -0.9716    5.9602 N.4       1 <0>        -0.3797
     13 C10         0.5576   -1.8853    6.0908 C.3       1 <0>        -0.0098
     14 C11         1.4594   -1.2317    7.1674 C.3       1 <0>        -0.1422
     15 C12         0.4064   -0.6550    8.1501 C.3       1 <0>        -0.1268
     16 C13        -0.7346   -0.2064    7.2130 C.3       1 <0>         0.0864
     17 H1         -0.6478    0.8605    7.0073 H         1 <0>         0.1516
     18 C14        -2.0678   -0.5018    7.8506 C.ar      1 <0>        -0.1311
     19 C15        -2.6828   -1.7204    7.6322 C.ar      1 <0>        -0.1336
     20 C16        -3.9056   -1.9944    8.2153 C.ar      1 <0>        -0.0907
     21 C17        -4.5184   -1.0503    9.0177 C.ar      1 <0>        -0.0921
     22 C18        -3.9073    0.1743    9.2403 C.ar      1 <0>         0.0718
     23 C19        -2.6736    0.4468    8.6604 C.ar      1 <0>         0.0806
     24 O2         -2.0503    1.6374    8.8762 O.3       1 <0>        -0.3074
     25 C20        -2.8580    2.7030    9.3880 C.3       1 <0>         0.0196
     26 C21        -3.7028    2.1528   10.5450 C.3       1 <0>         0.0169
     27 O3         -4.5246    1.0955   10.0296 O.3       1 <0>        -0.2974
     28 N3         -1.9092    0.4934    0.2517 N.pl3     1 <0>         0.0384
     29 O4         -2.7052    0.6965   -0.6353 O.2       1 <0>        -0.1331
     30 O5         -1.9200    1.1846    1.2435 O.3       1 <0>        -0.1772
     31 H2          1.3575   -3.0964    2.7722 H         1 <0>         0.0916
     32 H3          2.7507   -2.5327    1.8185 H         1 <0>         0.0840
     33 H4          1.8634   -1.3920    2.8577 H         1 <0>         0.0571
     34 H5          1.6469   -3.4484   -0.2160 H         1 <0>         0.1539
     35 H6          0.1466   -2.9101   -2.0909 H         1 <0>         0.1587
     36 H7         -1.4956   -1.0894   -1.8756 H         1 <0>         0.1647
     37 H8         -0.0852    0.7866    2.3639 H         1 <0>         0.4308
     38 H9          0.5823    0.4584    4.9717 H         1 <0>         0.1661
     39 H10        -1.1753    0.6888    4.8102 H         1 <0>         0.1673
     40 H11         0.2268   -2.8704    6.4199 H         1 <0>         0.1384
     41 H12         1.0913   -1.9603    5.1433 H         1 <0>         0.1340
     42 H13         2.0844   -1.9775    7.6585 H         1 <0>         0.1215
     43 H14         2.0681   -0.4367    6.7367 H         1 <0>         0.0982
     44 H15         0.0593   -1.4254    8.8387 H         1 <0>         0.1038
     45 H16         0.8140    0.1960    8.6958 H         1 <0>         0.1184
     46 H17        -2.2071   -2.4595    7.0047 H         1 <0>         0.1272
     47 H18        -4.3833   -2.9477    8.0433 H         1 <0>         0.1469
     48 H19        -5.4744   -1.2665    9.4714 H         1 <0>         0.1491
     49 H20        -2.2183    3.5078    9.7502 H         1 <0>         0.1337
     50 H21        -3.5123    3.0787    8.6013 H         1 <0>         0.0866
     51 H22        -3.0486    1.7714   11.3289 H         1 <0>         0.0870
     52 H23        -4.3360    2.9440   10.9465 H         1 <0>         0.1333
     53 H24        -1.4358   -1.5085    5.7966 H         1 <0>         0.4291
@<TRIPOS>BOND
     1    1    2 1
     2    1   31 1
     3    1   32 1
     4    1   33 1
     5    2    7 ar
     6    2    3 ar
     7    3    4 ar
     8    3   34 1
     9    4    5 ar
    10    4   35 1
    11    5    6 ar
    12    5   36 1
    13    6    7 ar
    14    6   28 1
    15    7    8 1
    16    8    9 am
    17    8   37 1
    18    9   10 2
    19    9   11 1
    20   11   12 1
    21   11   38 1
    22   11   39 1
    23   12   16 1
    24   12   13 1
    25   12   53 1
    26   13   14 1
    27   13   40 1
    28   13   41 1
    29   14   15 1
    30   14   42 1
    31   14   43 1
    32   15   16 1
    33   15   44 1
    34   15   45 1
    35   16   17 1
    36   16   18 1
    37   18   23 ar
    38   18   19 ar
    39   19   20 ar
    40   19   46 1
    41   20   21 ar
    42   20   47 1
    43   21   22 ar
    44   21   48 1
    45   22   27 1
    46   22   23 ar
    47   23   24 1
    48   24   25 1
    49   25   26 1
    50   25   49 1
    51   25   50 1
    52   26   27 1
    53   26   51 1
    54   26   52 1
    55   28   29 2
    56   28   30 1
