@<TRIPOS>MOLECULE
ZINC66119503
   63    65     0     0     0
SMALL
USER_CHARGES

@<TRIPOS>ATOM
      1 C1         -0.0166    1.5249    0.0148 C.3       1 <0>        -0.1778
      2 C2          0.0045   -0.0072    0.0052 C.3       1 <0>         0.0625
      3 C3          0.5749   -0.5068   -1.3181 C.3       1 <0>        -0.1404
      4 C4          2.0895   -0.3028   -1.3559 C.3       1 <0>         0.1574
      5 C5          2.7052   -1.0883   -0.1979 C.3       1 <0>        -0.1431
      6 C6          2.1508   -0.5936    1.1340 C.3       1 <0>         0.0599
      7 N1          0.7002   -0.5330    1.1665 N.4       1 <0>        -0.4904
      8 C7          2.7729    0.7625    1.4827 C.3       1 <0>        -0.1736
      9 C8          2.6042   -1.5937    2.2229 C.3       1 <0>        -0.1788
     10 N2          2.6160   -0.8195   -2.6253 N.am      1 <0>        -0.7464
     11 C9          3.7704   -0.3341   -3.1235 C.2       1 <0>         0.7108
     12 O1          4.3281    0.5945   -2.5712 O.2       1 <0>        -0.5814
     13 N3          4.3067   -0.8781   -4.2339 N.am      1 <0>        -0.6237
     14 C10         3.5882   -1.9213   -4.9784 C.3       1 <0>         0.1154
     15 C11         4.5106   -3.1332   -5.1434 C.3       1 <0>        -0.1424
     16 C12         5.8217   -2.6865   -5.7942 C.3       1 <0>         0.1455
     17 C13         6.5202   -1.6674   -4.8910 C.3       1 <0>        -0.1445
     18 C14         5.6181   -0.4349   -4.7263 C.3       1 <0>         0.1304
     19 N4          6.6933   -3.8487   -5.9837 N.am      1 <0>        -0.7292
     20 C15         7.6368   -3.8337   -6.9460 C.2       1 <0>         0.5349
     21 O2          7.7643   -2.8580   -7.6551 O.2       1 <0>        -0.5289
     22 C16         8.5333   -5.0292   -7.1410 C.3       1 <0>        -0.1446
     23 C17         7.8983   -6.1436   -7.9894 C.3       1 <0>        -0.1232
     24 C18         8.4873   -5.4342   -9.2201 C.3       1 <0>        -0.1434
     25 C19         9.5548   -4.8544   -8.2772 C.3       1 <0>        -0.1217
     26 C20        -1.4654   -0.4812    0.0828 C.3       1 <0>        -0.1795
     27 H1          1.0059    1.9024    0.0066 H         1 <0>         0.0838
     28 H2         -0.5446    1.8865   -0.8675 H         1 <0>         0.1054
     29 H3         -0.5262    1.8756    0.9123 H         1 <0>         0.0849
     30 H4          0.3497   -1.5696   -1.4343 H         1 <0>         0.0941
     31 H5          0.1152    0.0419   -2.1436 H         1 <0>         0.1161
     32 H6          2.3344    0.7523   -1.2739 H         1 <0>         0.1088
     33 H7          2.4750   -2.1496   -0.3173 H         1 <0>         0.0895
     34 H8          3.7904   -0.9608   -0.2109 H         1 <0>         0.1131
     35 H9          0.4200    0.0167    1.9847 H         1 <0>         0.4271
     36 H10         2.5328    1.4840    0.7017 H         1 <0>         0.0835
     37 H11         2.3735    1.1115    2.4350 H         1 <0>         0.0816
     38 H12         3.8551    0.6568    1.5594 H         1 <0>         0.1055
     39 H13         3.6932   -1.6297    2.2523 H         1 <0>         0.1064
     40 H14         2.2250   -1.2715    3.1927 H         1 <0>         0.0836
     41 H15         2.2141   -2.5847    1.9912 H         1 <0>         0.0810
     42 H16         2.1329   -1.5101   -3.1055 H         1 <0>         0.3998
     43 H17         2.6949   -2.2144   -4.4269 H         1 <0>         0.0789
     44 H18         3.3057   -1.5408   -5.9600 H         1 <0>         0.0806
     45 H19         4.7192   -3.5675   -4.1656 H         1 <0>         0.0738
     46 H20         4.0252   -3.8764   -5.7760 H         1 <0>         0.0871
     47 H21         5.6101   -2.2300   -6.7611 H         1 <0>         0.0927
     48 H22         6.7098   -2.1154   -3.9156 H         1 <0>         0.0688
     49 H23         7.4651   -1.3673   -5.3440 H         1 <0>         0.0860
     50 H24         5.4977    0.0644   -5.6878 H         1 <0>         0.0752
     51 H25         6.0645    0.2531   -4.0084 H         1 <0>         0.0998
     52 H26         6.5913   -4.6291   -5.4166 H         1 <0>         0.4009
     53 H27         8.9732   -5.3849   -6.2093 H         1 <0>         0.1004
     54 H28         8.3266   -7.1292   -7.8069 H         1 <0>         0.0936
     55 H29         6.8085   -6.1435   -7.9654 H         1 <0>         0.0685
     56 H30         8.8898   -6.1182   -9.9673 H         1 <0>         0.0726
     57 H31         7.8263   -4.6802   -9.6475 H         1 <0>         0.0835
     58 H32         9.8024   -3.8135   -8.4854 H         1 <0>         0.0822
     59 H33        10.4360   -5.4875   -8.1733 H         1 <0>         0.0899
     60 H34        -2.0164   -0.0986   -0.7764 H         1 <0>         0.1074
     61 H35        -1.4966   -1.5707    0.0785 H         1 <0>         0.0818
     62 H36        -1.9194   -0.1084    1.0009 H         1 <0>         0.0850
     63 H37         0.3445   -1.4762    1.3527 H         1 <0>         0.4236
@<TRIPOS>BOND
     1    1    2 1
     2    1   27 1
     3    1   28 1
     4    1   29 1
     5    2    7 1
     6    2    3 1
     7    2   26 1
     8    3    4 1
     9    3   30 1
    10    3   31 1
    11    4    5 1
    12    4   10 1
    13    4   32 1
    14    5    6 1
    15    5   33 1
    16    5   34 1
    17    6    7 1
    18    6    8 1
    19    6    9 1
    20    7   35 1
    21    7   63 1
    22    8   36 1
    23    8   37 1
    24    8   38 1
    25    9   39 1
    26    9   40 1
    27    9   41 1
    28   10   11 am
    29   10   42 1
    30   11   12 2
    31   11   13 am
    32   13   18 1
    33   13   14 1
    34   14   15 1
    35   14   43 1
    36   14   44 1
    37   15   16 1
    38   15   45 1
    39   15   46 1
    40   16   17 1
    41   16   19 1
    42   16   47 1
    43   17   18 1
    44   17   48 1
    45   17   49 1
    46   18   50 1
    47   18   51 1
    48   19   20 am
    49   19   52 1
    50   20   21 2
    51   20   22 1
    52   22   25 1
    53   22   23 1
    54   22   53 1
    55   23   24 1
    56   23   54 1
    57   23   55 1
    58   24   25 1
    59   24   56 1
    60   24   57 1
    61   25   58 1
    62   25   59 1
    63   26   60 1
    64   26   61 1
    65   26   62 1
