@<TRIPOS>MOLECULE
ZINC35512402
   57    61     0     0     0
SMALL
USER_CHARGES

@<TRIPOS>ATOM
      1 C1         -0.0187    1.5258    0.0104 C.3       1 <0>        -0.1516
      2 C2          0.0021   -0.0041    0.0020 C.3       1 <0>         0.0502
      3 O1         -1.3386   -0.4987    0.0122 O.3       1 <0>        -0.3027
      4 C3         -1.4984   -1.8492    0.0064 C.ar      1 <0>         0.1142
      5 C4         -0.3893   -2.6797   -0.0028 C.ar      1 <0>        -0.1505
      6 C5         -0.5535   -4.0523   -0.0082 C.ar      1 <0>        -0.0598
      7 C6         -1.8231   -4.5996   -0.0047 C.ar      1 <0>        -0.1230
      8 C7         -2.9339   -3.7768    0.0040 C.ar      1 <0>        -0.1030
      9 C8         -2.7762   -2.4001    0.0157 C.ar      1 <0>         0.0887
     10 O2         -3.8679   -1.5893    0.0304 O.3       1 <0>        -0.4841
     11 C9          0.6539   -4.9539   -0.0182 C.3       1 <0>         0.2346
     12 H1          1.5258   -4.4101   -0.3818 H         1 <0>         0.1351
     13 C10         0.9126   -5.4840    1.3538 C.2       1 <0>        -0.2300
     14 C11         1.2324   -4.7985    2.6102 C.2       1 <0>         0.4573
     15 O3          1.1664   -3.5896    2.7462 O.2       1 <0>        -0.4208
     16 C12         1.6439   -5.7181    3.7009 C.ar      1 <0>        -0.2043
     17 C13         2.1687   -5.2131    4.8903 C.ar      1 <0>        -0.0330
     18 C14         2.5477   -6.0731    5.8832 C.ar      1 <0>        -0.1030
     19 C15         2.4123   -7.4435    5.7099 C.ar      1 <0>        -0.0525
     20 C16         1.8951   -7.9592    4.5429 C.ar      1 <0>        -0.1263
     21 C17         1.4982   -7.1027    3.5159 C.ar      1 <0>         0.1338
     22 O4          0.9833   -7.6305    2.3821 O.3       1 <0>        -0.1753
     23 C18         0.8105   -6.8455    1.3003 C.2       1 <0>         0.0958
     24 C19         0.4946   -7.2311   -0.0852 C.2       1 <0>         0.5755
     25 O5          0.3409   -8.3725   -0.4720 O.2       1 <0>        -0.4414
     26 N1          0.4010   -6.1320   -0.8640 N.am      1 <0>        -0.4940
     27 C20         0.1176   -6.1148   -2.2153 C.2       1 <0>         0.2947
     28 N2          0.0213   -5.0678   -3.0171 N.2       1 <0>        -0.5438
     29 C21        -0.2554   -5.2019   -4.2869 C.2       1 <0>         0.1999
     30 C22        -0.4418   -6.5059   -4.7431 C.2       1 <0>        -0.3519
     31 S1         -0.1796   -7.4220   -3.2328 S.3       1 <0>         0.2583
     32 C23        -0.7473   -6.9719   -6.0374 C.2       1 <0>         0.4418
     33 O6         -0.8856   -6.1824   -6.9504 O.2       1 <0>        -0.4533
     34 C24        -0.9025   -8.4496   -6.2890 C.3       1 <0>        -0.1960
     35 C25        -0.3672   -4.0134   -5.2067 C.3       1 <0>        -0.0915
     36 C26         3.1150   -5.5313    7.1699 C.3       1 <0>        -0.1172
     37 H2          1.0039    1.9031    0.0027 H         1 <0>         0.0797
     38 H3         -0.5459    1.8868   -0.8726 H         1 <0>         0.0665
     39 H4         -0.5289    1.8773    0.9072 H         1 <0>         0.0676
     40 H5          0.5123   -0.3556   -0.8948 H         1 <0>         0.0626
     41 H6          0.5293   -0.3651    0.8851 H         1 <0>         0.0658
     42 H7          0.6036   -2.2546   -0.0062 H         1 <0>         0.1369
     43 H8         -1.9473   -5.6725   -0.0093 H         1 <0>         0.1164
     44 H9         -3.9246   -4.2069    0.0063 H         1 <0>         0.1392
     45 H10        -4.1920   -1.3501   -0.8487 H         1 <0>         0.3890
     46 H11         2.2748   -4.1470    5.0266 H         1 <0>         0.1467
     47 H12         2.7167   -8.1136    6.5003 H         1 <0>         0.1460
     48 H13         1.7967   -9.0279    4.4223 H         1 <0>         0.1505
     49 H14        -0.7438   -8.9952   -5.3589 H         1 <0>         0.0734
     50 H15        -1.9069   -8.6512   -6.6616 H         1 <0>         0.1001
     51 H16        -0.1693   -8.7712   -7.0286 H         1 <0>         0.1001
     52 H17         0.6090   -3.7963   -5.6401 H         1 <0>         0.0873
     53 H18        -1.0770   -4.2361   -6.0034 H         1 <0>         0.0987
     54 H19        -0.7145   -3.1483   -4.6419 H         1 <0>         0.0789
     55 H20         2.3057   -5.3572    7.8790 H         1 <0>         0.0777
     56 H21         3.8169   -6.2520    7.5895 H         1 <0>         0.0734
     57 H22         3.6328   -4.5927    6.9720 H         1 <0>         0.0726
@<TRIPOS>BOND
     1    1    2 1
     2    1   37 1
     3    1   38 1
     4    1   39 1
     5    2    3 1
     6    2   40 1
     7    2   41 1
     8    3    4 1
     9    4    9 ar
    10    4    5 ar
    11    5    6 ar
    12    5   42 1
    13    6    7 ar
    14    6   11 1
    15    7    8 ar
    16    7   43 1
    17    8    9 ar
    18    8   44 1
    19    9   10 1
    20   10   45 1
    21   11   12 1
    22   11   26 1
    23   11   13 1
    24   13   23 2
    25   13   14 1
    26   14   15 2
    27   14   16 1
    28   16   21 ar
    29   16   17 ar
    30   17   18 ar
    31   17   46 1
    32   18   19 ar
    33   18   36 1
    34   19   20 ar
    35   19   47 1
    36   20   21 ar
    37   20   48 1
    38   21   22 1
    39   22   23 1
    40   23   24 1
    41   24   25 2
    42   24   26 am
    43   26   27 1
    44   27   31 1
    45   27   28 2
    46   28   29 1
    47   29   30 2
    48   29   35 1
    49   30   31 1
    50   30   32 1
    51   32   33 2
    52   32   34 1
    53   34   49 1
    54   34   50 1
    55   34   51 1
    56   35   52 1
    57   35   53 1
    58   35   54 1
    59   36   55 1
    60   36   56 1
    61   36   57 1
