@<TRIPOS>MOLECULE
ZINC39968275
   49    51     0     0     0
SMALL
USER_CHARGES

@<TRIPOS>ATOM
      1 C1         -0.0187    1.5258    0.0104 C.3       1 <0>        -0.1802
      2 C2          0.0021   -0.0041    0.0020 C.3       1 <0>         0.0893
      3 N1          0.7106   -0.4894    1.1889 N.pl3     1 <0>        -0.4522
      4 C3          2.0571   -0.7437    1.3072 C.2       1 <0>         0.2460
      5 N2          2.2636   -1.1607    2.5347 N.2       1 <0>        -0.2674
      6 N3          1.1544   -1.1843    3.1831 N.2       1 <0>        -0.2897
      7 C4          0.1723   -0.7786    2.4125 C.2       1 <0>         0.1426
      8 S1         -1.5239   -0.6369    2.8682 S.3       1 <0>         0.0890
      9 C5         -1.5583   -1.1682    4.6023 C.3       1 <0>        -0.1450
     10 C6         -2.9707   -1.0938    5.1225 C.2       1 <0>         0.5330
     11 O1         -3.8659   -0.7192    4.3951 O.2       1 <0>        -0.4818
     12 N4         -3.2390   -1.4435    6.3962 N.am      1 <0>        -0.6126
     13 C7         -4.5385   -1.3751    6.8749 C.2       1 <0>         0.0358
     14 C8         -4.9964   -1.6867    8.1467 C.2       1 <0>        -0.2321
     15 C9         -6.4130   -1.5246    8.3812 C.2       1 <0>        -0.0708
     16 C10        -7.1348   -1.0868    7.3331 C.2       1 <0>        -0.2173
     17 S2         -5.9170   -0.8894    6.0509 S.3       1 <0>         0.2830
     18 C11        -8.6167   -0.8216    7.2639 C.3       1 <0>        -0.0658
     19 C12        -7.0431   -1.8276    9.7163 C.3       1 <0>        -0.0978
     20 C13        -4.0897   -2.1567    9.1988 C.2       1 <0>         0.5855
     21 O2         -3.5492   -1.3558    9.9389 O.2       1 <0>        -0.5318
     22 N5         -3.8547   -3.4756    9.3462 N.am      1 <0>        -0.8480
     23 C14         3.0788   -0.5790    0.2513 C.2       1 <0>        -0.0343
     24 C15         4.3396   -1.1571    0.3821 C.2       1 <0>        -0.1394
     25 C16         5.2462   -0.9842   -0.6050 C.2       1 <0>        -0.1296
     26 S3          4.3456    0.0159   -1.7771 S.3       1 <0>         0.0771
     27 C17         2.8068    0.1405   -0.8813 C.2       1 <0>        -0.1855
     28 C18         6.6580   -1.5036   -0.6936 C.3       1 <0>        -0.0744
     29 H1          1.0039    1.9031    0.0027 H         1 <0>         0.0687
     30 H2         -0.5459    1.8868   -0.8726 H         1 <0>         0.0896
     31 H3         -0.5289    1.8773    0.9072 H         1 <0>         0.0742
     32 H4         -1.0205   -0.3814    0.0098 H         1 <0>         0.1054
     33 H5          0.5123   -0.3556   -0.8948 H         1 <0>         0.1064
     34 H6         -1.1978   -2.1943    4.6751 H         1 <0>         0.1355
     35 H7         -0.9178   -0.5152    5.1951 H         1 <0>         0.1360
     36 H8         -2.5229   -1.7431    6.9780 H         1 <0>         0.4230
     37 H9         -8.8140    0.2135    7.5427 H         1 <0>         0.0775
     38 H10        -8.9703   -0.9979    6.2480 H         1 <0>         0.0732
     39 H11        -9.1376   -1.4886    7.9508 H         1 <0>         0.0794
     40 H12        -7.0349   -0.9296   10.3340 H         1 <0>         0.0747
     41 H13        -8.0715   -2.1563    9.5665 H         1 <0>         0.0743
     42 H14        -6.4785   -2.6161   10.2139 H         1 <0>         0.0618
     43 H15        -4.2854   -4.1139    8.7563 H         1 <0>         0.4037
     44 H16        -3.2548   -3.7865   10.0422 H         1 <0>         0.4039
     45 H17         4.5890   -1.7348    1.2599 H         1 <0>         0.1474
     46 H18         1.8975    0.6523   -1.1598 H         1 <0>         0.1928
     47 H19         6.6563   -2.4800   -1.1782 H         1 <0>         0.0833
     48 H20         7.2645   -0.8100   -1.2759 H         1 <0>         0.0775
     49 H21         7.0745   -1.5967    0.3094 H         1 <0>         0.0859
@<TRIPOS>BOND
     1    1    2 1
     2    1   29 1
     3    1   30 1
     4    1   31 1
     5    2    3 1
     6    2   32 1
     7    2   33 1
     8    3    7 1
     9    3    4 1
    10    4    5 2
    11    4   23 1
    12    5    6 1
    13    6    7 2
    14    7    8 1
    15    8    9 1
    16    9   10 1
    17    9   34 1
    18    9   35 1
    19   10   11 2
    20   10   12 am
    21   12   13 1
    22   12   36 1
    23   13   17 1
    24   13   14 2
    25   14   15 1
    26   14   20 1
    27   15   16 2
    28   15   19 1
    29   16   17 1
    30   16   18 1
    31   18   37 1
    32   18   38 1
    33   18   39 1
    34   19   40 1
    35   19   41 1
    36   19   42 1
    37   20   21 2
    38   20   22 am
    39   22   43 1
    40   22   44 1
    41   23   27 2
    42   23   24 1
    43   24   25 2
    44   24   45 1
    45   25   26 1
    46   25   28 1
    47   26   27 1
    48   27   46 1
    49   28   47 1
    50   28   48 1
    51   28   49 1
