@<TRIPOS>MOLECULE
ZINC09287220
   51    54     0     0     0
SMALL
USER_CHARGES
2-[2-[[1-(4-amino-1,2,5-oxadiazol-3-yl)-5-[(4-methyl-1,2,4-triazol-3-yl)sulfanylmethyl]triazol-4-yl]carbonylaminoiminomethyl]phenoxy]acetic acid
@<TRIPOS>ATOM
      1 C1          1.4428   12.5264   -3.7646 C.3       1 <0>         0.0732
      2 N1          1.3200   12.6303   -2.3085 N.pl3     1 <0>        -0.4683
      3 C2          0.4371   13.4045   -1.6074 C.2       1 <0>         0.1623
      4 N2          0.6679   13.2056   -0.3406 N.2       1 <0>        -0.2804
      5 N3          1.6254   12.3609   -0.1938 N.2       1 <0>        -0.2778
      6 C3          2.0609   11.9718   -1.3695 C.2       1 <0>         0.1635
      7 S1          3.3609   10.8230   -1.6776 S.3       1 <0>         0.0426
      8 C4          3.8293   10.4151    0.0225 C.3       1 <0>        -0.0633
      9 C5          4.9589    9.4177    0.0068 C.2       1 <0>         0.1609
     10 C6          4.8438    8.0565    0.0005 C.2       1 <0>        -0.0499
     11 N4          6.0785    7.5246   -0.0078 N.2       1 <0>        -0.1663
     12 N5          6.9548    8.4679   -0.0166 N.2       1 <0>        -0.0415
     13 N6          6.2812    9.6976   -0.0039 N.pl3     1 <0>        -0.3032
     14 C7          6.8653   10.9693   -0.0031 C.2       1 <0>         0.2905
     15 C8          8.3033   11.2528   -0.0147 C.2       1 <0>         0.3603
     16 N7          8.4662   12.5472   -0.0108 N.2       1 <0>        -0.3379
     17 O1          7.1823   13.1460    0.0031 O.3       1 <0>         0.0569
     18 N8          6.2235   12.1031    0.0024 N.2       1 <0>        -0.2461
     19 N9          9.3199   10.3043   -0.0277 N.pl3     1 <0>        -0.8025
     20 H1          9.1015    9.3593   -0.0297 H         1 <0>         0.4287
     21 H2         10.2475   10.5878   -0.0348 H         1 <0>         0.4219
     22 C9          3.5787    7.2984    0.0080 C.2       1 <0>         0.5880
     23 O2          2.5156    7.8893    0.0210 O.2       1 <0>        -0.3978
     24 N10         3.6006    5.9508    0.0006 N.am      1 <0>        -0.5767
     25 N11         2.3988    5.2307    0.0077 N.2       1 <0>        -0.1654
     26 C10         2.4199    3.9328    0.0006 C.2       1 <0>         0.0891
     27 C11         1.1558    3.1752    0.0081 C.ar      1 <0>        -0.0996
     28 C12         1.1739    1.7786    0.0004 C.ar      1 <0>        -0.0541
     29 C13        -0.0126    1.0758    0.0080 C.ar      1 <0>        -0.1806
     30 C14        -1.2225    1.7488    0.0174 C.ar      1 <0>        -0.0637
     31 C15        -1.2538    3.1305    0.0308 C.ar      1 <0>        -0.2244
     32 C16        -0.0714    3.8522    0.0234 C.ar      1 <0>         0.1723
     33 O3         -0.1011    5.2099    0.0315 O.3       1 <0>        -0.2442
     34 C17        -1.3882    5.8305    0.0470 C.3       1 <0>         0.0114
     35 C18        -1.2236    7.3285    0.0541 C.2       1 <0>         0.4571
     36 O4         -0.1175    7.8147    0.0465 O.co2     1 <0>        -0.5666
     37 H3          0.7924   11.7309   -4.1282 H         1 <0>         0.0879
     38 H4          1.1512   13.4717   -4.2222 H         1 <0>         0.0957
     39 H5          2.4761   12.2992   -4.0268 H         1 <0>         0.0879
     40 H6         -0.3100   14.0623   -2.0263 H         1 <0>         0.2232
     41 H7          2.9728    9.9858    0.5423 H         1 <0>         0.1642
     42 H8          4.1509   11.3201    0.5379 H         1 <0>         0.1281
     43 H9          4.4483    5.4796   -0.0097 H         1 <0>         0.3813
     44 H10         3.3638    3.4081   -0.0109 H         1 <0>         0.1149
     45 H11         2.1156    1.2500   -0.0118 H         1 <0>         0.1283
     46 H12         0.0021   -0.0041    0.0020 H         1 <0>         0.1214
     47 H13        -2.1472    1.1908    0.0184 H         1 <0>         0.1207
     48 H14        -2.2015    3.6483    0.0423 H         1 <0>         0.1311
     49 H15        -1.9470    5.5306   -0.8395 H         1 <0>         0.0587
     50 H16        -1.9303    5.5204    0.9404 H         1 <0>         0.0593
     51 O5         -2.3057    8.1225    0.0687 O.co2     1 <0>        -0.7710
@<TRIPOS>BOND
     1    1    2 1
     2    1   37 1
     3    1   38 1
     4    1   39 1
     5    2    6 1
     6    2    3 1
     7    3    4 2
     8    3   40 1
     9    4    5 1
    10    5    6 2
    11    6    7 1
    12    7    8 1
    13    8    9 1
    14    8   41 1
    15    8   42 1
    16    9   13 1
    17    9   10 2
    18   10   11 1
    19   10   22 1
    20   11   12 2
    21   12   13 1
    22   13   14 1
    23   14   18 2
    24   14   15 1
    25   15   16 2
    26   15   19 1
    27   16   17 1
    28   17   18 1
    29   19   20 1
    30   19   21 1
    31   22   23 2
    32   22   24 am
    33   24   25 1
    34   24   43 1
    35   25   26 2
    36   26   27 1
    37   26   44 1
    38   27   32 ar
    39   27   28 ar
    40   28   29 ar
    41   28   45 1
    42   29   30 ar
    43   29   46 1
    44   30   31 ar
    45   30   47 1
    46   31   32 ar
    47   31   48 1
    48   32   33 1
    49   33   34 1
    50   34   35 1
    51   34   49 1
    52   34   50 1
    53   35   36 2
    54   35   51 1
