@<TRIPOS>MOLECULE
ZINC39558847
   44    46     0     0     0
SMALL
USER_CHARGES

@<TRIPOS>ATOM
      1 C1         -0.3362    1.3657   -0.3229 C.3       1 <0>         0.0707
      2 N1         -0.3457   -0.0988   -0.2879 N.pl3     1 <0>        -0.7047
      3 C2          0.1023   -0.8225   -1.3853 C.ar      1 <0>         0.3186
      4 C3          0.4375   -0.1677   -2.5642 C.ar      1 <0>        -0.2050
      5 C4          0.8823   -0.8889   -3.6529 C.ar      1 <0>         0.0207
      6 C5          0.9981   -2.2683   -3.5813 C.ar      1 <0>        -0.1220
      7 C6          0.6701   -2.9350   -2.4214 C.ar      1 <0>         0.0364
      8 C7          0.2244   -2.2185   -1.3076 C.ar      1 <0>        -0.2307
      9 C8         -0.1216   -2.9251   -0.0608 C.2       1 <0>         0.5859
     10 O1         -0.6076   -2.3125    0.8705 O.2       1 <0>        -0.5441
     11 N2          0.1008   -4.2500    0.0468 N.am      1 <0>        -0.7121
     12 C9         -0.2431   -4.9522    1.2858 C.3       1 <0>         0.1014
     13 C10         0.1023   -6.4126    1.1479 C.2       1 <0>         0.5090
     14 O2          0.5878   -6.8262    0.1162 O.2       1 <0>        -0.5102
     15 N3         -0.1284   -7.2591    2.1710 N.am      1 <0>        -0.6632
     16 C11         0.2911   -8.5929    2.0847 C.ar      1 <0>         0.1524
     17 C12        -0.4575   -9.5961    2.6899 C.ar      1 <0>        -0.1275
     18 C13        -0.0495  -10.9122    2.6085 C.ar      1 <0>        -0.0824
     19 C14         1.1106  -11.2360    1.9210 C.ar      1 <0>         0.0784
     20 C15         1.8646  -10.2307    1.3121 C.ar      1 <0>         0.1115
     21 C16         1.4491   -8.9107    1.3910 C.ar      1 <0>        -0.1069
     22 N4          2.9542  -10.8540    0.7085 N.am      1 <0>        -0.6398
     23 H1          3.6559  -10.4100    0.2073 H         1 <0>         0.4377
     24 C17         2.8679  -12.1776    0.9391 C.2       1 <0>         0.6852
     25 O3          3.6644  -13.0104    0.5480 O.2       1 <0>        -0.5516
     26 N5          1.7668  -12.4403    1.6679 N.am      1 <0>        -0.6410
     27 H2          1.4791  -13.3173    1.9662 H         1 <0>         0.4370
     28 N6          1.4763   -3.0289   -4.7576 N.pl3     1 <0>         0.0448
     29 O4          1.7646   -2.4470   -5.7774 O.2       1 <0>        -0.1668
     30 O5          1.5785   -4.2321   -4.6987 O.3       1 <0>        -0.1694
     31 H3          0.6840    1.7190   -0.4725 H         1 <0>         0.0653
     32 H4         -0.9651    1.7137   -1.1424 H         1 <0>         0.0653
     33 H5         -0.7205    1.7541    0.6203 H         1 <0>         0.0858
     34 H6         -0.6650   -0.5631    0.5016 H         1 <0>         0.4261
     35 H7          0.3494    0.9068   -2.6283 H         1 <0>         0.1533
     36 H8          1.1416   -0.3754   -4.5670 H         1 <0>         0.1580
     37 H9          0.7619   -4.0100   -2.3714 H         1 <0>         0.1546
     38 H10         0.4885   -4.7387   -0.6960 H         1 <0>         0.4156
     39 H11         0.3192   -4.5226    2.1149 H         1 <0>         0.1106
     40 H12        -1.3109   -4.8480    1.4782 H         1 <0>         0.1097
     41 H13        -0.5849   -6.9448    2.9670 H         1 <0>         0.4186
     42 H14        -1.3609   -9.3448    3.2257 H         1 <0>         0.1402
     43 H15        -0.6331  -11.6891    3.0800 H         1 <0>         0.1397
     44 H16         2.0276   -8.1315    0.9170 H         1 <0>         0.1445
@<TRIPOS>BOND
     1    1    2 1
     2    1   31 1
     3    1   32 1
     4    1   33 1
     5    2    3 1
     6    2   34 1
     7    3    8 ar
     8    3    4 ar
     9    4    5 ar
    10    4   35 1
    11    5    6 ar
    12    5   36 1
    13    6    7 ar
    14    6   28 1
    15    7    8 ar
    16    7   37 1
    17    8    9 1
    18    9   10 2
    19    9   11 am
    20   11   12 1
    21   11   38 1
    22   12   13 1
    23   12   39 1
    24   12   40 1
    25   13   14 2
    26   13   15 am
    27   15   16 1
    28   15   41 1
    29   16   21 ar
    30   16   17 ar
    31   17   18 ar
    32   17   42 1
    33   18   19 ar
    34   18   43 1
    35   19   26 1
    36   19   20 ar
    37   20   21 ar
    38   20   22 1
    39   21   44 1
    40   22   23 1
    41   22   24 am
    42   24   25 2
    43   24   26 am
    44   26   27 1
    45   28   29 2
    46   28   30 1
