@<TRIPOS>MOLECULE
ZINC39574842
   40    42     0     0     0
SMALL
USER_CHARGES

@<TRIPOS>ATOM
      1 C1         -0.0184    1.5028    0.0103 C.3       1 <0>        -0.0784
      2 C2          0.0021   -0.0041    0.0020 C.2       1 <0>        -0.1762
      3 C3         -1.0597   -0.8527    0.0021 C.2       1 <0>        -0.1964
      4 C4         -0.8340   -2.2044   -0.0063 C.2       1 <0>        -0.0488
      5 C5          0.5071   -2.5919   -0.0143 C.2       1 <0>        -0.2010
      6 S1          1.3423   -1.0168   -0.0168 S.3       1 <0>         0.2401
      7 C6          1.0565   -3.8877   -0.0231 C.2       1 <0>         0.2043
      8 N1          0.4079   -5.0370   -0.0315 N.2       1 <0>        -0.2997
      9 N2          1.1658   -6.0626   -0.0383 N.2       1 <0>        -0.2234
     10 C7          2.4473   -5.7887   -0.0357 C.2       1 <0>         0.0128
     11 C8          2.5273   -4.2711   -0.0317 C.3       1 <0>        -0.1392
     12 C9          3.5588   -6.7372   -0.0418 C.2       1 <0>         0.6150
     13 O1          4.7067   -6.3302   -0.0378 O.2       1 <0>        -0.4843
     14 N3          3.3138   -8.0625   -0.0517 N.am      1 <0>        -0.5697
     15 N4          4.3795   -8.9719   -0.0575 N.2       1 <0>        -0.2036
     16 C10         4.1433  -10.2489   -0.0671 C.2       1 <0>         0.1133
     17 C11         5.2641  -11.2053   -0.0733 C.ar      1 <0>        -0.0955
     18 C12         5.0146  -12.5797   -0.0894 C.ar      1 <0>        -0.0489
     19 C13         6.0682  -13.4694   -0.0950 C.ar      1 <0>        -0.1645
     20 C14         7.3730  -13.0064   -0.0847 C.ar      1 <0>        -0.0599
     21 C15         7.6331  -11.6491   -0.0688 C.ar      1 <0>        -0.2183
     22 C16         6.5868  -10.7412   -0.0688 C.ar      1 <0>         0.1649
     23 O2          6.8414   -9.4072   -0.0588 O.3       1 <0>        -0.2765
     24 C17         8.2137   -9.0087   -0.0547 C.3       1 <0>         0.0234
     25 H1          1.0042    1.8801    0.0026 H         1 <0>         0.0767
     26 H2         -0.5455    1.8639   -0.8728 H         1 <0>         0.0872
     27 H3         -0.5286    1.8543    0.9071 H         1 <0>         0.0873
     28 H4         -2.0684   -0.4667    0.0090 H         1 <0>         0.1415
     29 H5         -1.6405   -2.9227   -0.0063 H         1 <0>         0.1531
     30 H6          3.0220   -3.9018   -0.9300 H         1 <0>         0.1554
     31 H7          3.0302   -3.9106    0.8656 H         1 <0>         0.1549
     32 H8          2.3995   -8.3866   -0.0548 H         1 <0>         0.3938
     33 H9          3.1254  -10.6098   -0.0706 H         1 <0>         0.1238
     34 H10         3.9983  -12.9449   -0.0970 H         1 <0>         0.1359
     35 H11         5.8747  -14.5318   -0.1071 H         1 <0>         0.1297
     36 H12         8.1923  -13.7100   -0.0889 H         1 <0>         0.1277
     37 H13         8.6536  -11.2957   -0.0609 H         1 <0>         0.1322
     38 H14         8.7067   -9.3943   -0.9472 H         1 <0>         0.0541
     39 H15         8.2760   -7.9205   -0.0467 H         1 <0>         0.1027
     40 H16         8.7052   -9.4073    0.8327 H         1 <0>         0.0541
@<TRIPOS>BOND
     1    1    2 1
     2    1   25 1
     3    1   26 1
     4    1   27 1
     5    2    6 1
     6    2    3 2
     7    3    4 1
     8    3   28 1
     9    4    5 2
    10    4   29 1
    11    5    6 1
    12    5    7 1
    13    7   11 1
    14    7    8 2
    15    8    9 1
    16    9   10 2
    17   10   11 1
    18   10   12 1
    19   11   30 1
    20   11   31 1
    21   12   13 2
    22   12   14 am
    23   14   15 1
    24   14   32 1
    25   15   16 2
    26   16   17 1
    27   16   33 1
    28   17   22 ar
    29   17   18 ar
    30   18   19 ar
    31   18   34 1
    32   19   20 ar
    33   19   35 1
    34   20   21 ar
    35   20   36 1
    36   21   22 ar
    37   21   37 1
    38   22   23 1
    39   23   24 1
    40   24   38 1
    41   24   39 1
    42   24   40 1
