@<TRIPOS>MOLECULE
ZINC41846424
   54    56     0     0     0
SMALL
USER_CHARGES

@<TRIPOS>ATOM
      1 C1          3.4853   -2.7457    2.1548 C.3       1 <0>        -0.1304
      2 C2          2.6486   -1.8470    1.2420 C.3       1 <0>        -0.0838
      3 C3          1.1963   -1.8421    1.7233 C.3       1 <0>        -0.1437
      4 C4          3.2038   -0.4219    1.2814 C.3       1 <0>        -0.1429
      5 C5          2.7081   -2.3705   -0.1699 C.2       1 <0>         0.5224
      6 O1          3.3559   -3.3645   -0.4214 O.2       1 <0>        -0.5144
      7 N1          2.0414   -1.7340   -1.1532 N.am      1 <0>        -0.6720
      8 C6          2.1736   -2.1620   -2.4788 C.ar      1 <0>         0.1608
      9 C7          2.1646   -1.2343   -3.5133 C.ar      1 <0>        -0.1521
     10 C8          2.2947   -1.6557   -4.8225 C.ar      1 <0>        -0.0822
     11 C9          2.4340   -3.0003   -5.1080 C.ar      1 <0>        -0.1314
     12 C10         2.4438   -3.9333   -4.0782 C.ar      1 <0>         0.1534
     13 C11         2.3195   -3.5122   -2.7612 C.ar      1 <0>        -0.1399
     14 N2          2.5839   -5.2930   -4.3675 N.am      1 <0>        -0.6406
     15 C12         3.3661   -5.6869   -5.3920 C.2       1 <0>         0.5106
     16 O2          3.8818   -4.8594   -6.1148 O.2       1 <0>        -0.4958
     17 C13         3.5984   -7.1417   -5.6377 C.2       1 <0>         0.5131
     18 O3          3.0827   -7.9691   -4.9150 O.2       1 <0>        -0.5129
     19 N3          4.3806   -7.5356   -6.6622 N.am      1 <0>        -0.6954
     20 C14         4.6084   -8.9625   -6.9033 C.3       1 <0>         0.1227
     21 C15         5.5249   -9.1349   -8.1162 C.3       1 <0>         0.0673
     22 H1          5.1212   -8.6087   -8.9812 H         1 <0>         0.0989
     23 C16         5.7354  -10.6339   -8.4355 C.3       1 <0>        -0.1001
     24 C17         7.1828  -10.6578   -8.8872 C.ar      1 <0>        -0.1743
     25 C18         7.9249  -11.6007   -9.5638 C.ar      1 <0>        -0.0692
     26 C19         9.2539  -11.3534   -9.8581 C.ar      1 <0>        -0.1460
     27 C20         9.8320  -10.1584   -9.4707 C.ar      1 <0>        -0.0840
     28 C21         9.0917   -9.2143   -8.7901 C.ar      1 <0>        -0.1355
     29 C22         7.7541   -9.4570   -8.4868 C.ar      1 <0>         0.1032
     30 O4          6.8555   -8.6790   -7.8181 O.3       1 <0>        -0.2977
     31 H2          3.0898   -3.7611    2.1267 H         1 <0>         0.0637
     32 H3          4.5200   -2.7493    1.8119 H         1 <0>         0.0637
     33 H4          3.4423   -2.3671    3.1760 H         1 <0>         0.0657
     34 H5          1.1533   -1.4635    2.7446 H         1 <0>         0.0736
     35 H6          0.6002   -1.2018    1.0731 H         1 <0>         0.0600
     36 H7          0.8007   -2.8574    1.6953 H         1 <0>         0.0634
     37 H8          4.2385   -0.4254    0.9385 H         1 <0>         0.0630
     38 H9          2.6077    0.2184    0.6311 H         1 <0>         0.0603
     39 H10         3.1608   -0.0433    2.3026 H         1 <0>         0.0731
     40 H11         1.4698   -0.9793   -0.9419 H         1 <0>         0.4122
     41 H12         2.0555   -0.1825   -3.2936 H         1 <0>         0.1287
     42 H13         2.2870   -0.9326   -5.6246 H         1 <0>         0.1335
     43 H14         2.5351   -3.3267   -6.1325 H         1 <0>         0.1411
     44 H15         2.3316   -4.2347   -1.9585 H         1 <0>         0.1449
     45 H16         2.1181   -5.9535   -3.8311 H         1 <0>         0.4240
     46 H17         4.7927   -6.8742   -7.2398 H         1 <0>         0.4183
     47 H18         5.0781   -9.4087   -6.0266 H         1 <0>         0.0888
     48 H19         3.6553   -9.4553   -7.0951 H         1 <0>         0.0998
     49 H20         5.5954  -11.2454   -7.5442 H         1 <0>         0.0974
     50 H21         5.0718  -10.9584   -9.2370 H         1 <0>         0.0987
     51 H22         7.4695  -12.5328   -9.8640 H         1 <0>         0.1264
     52 H23         9.8379  -12.0912  -10.3881 H         1 <0>         0.1297
     53 H24        10.8687   -9.9634   -9.7021 H         1 <0>         0.1328
     54 H25         9.5510   -8.2838   -8.4909 H         1 <0>         0.1292
@<TRIPOS>BOND
     1    1    2 1
     2    1   31 1
     3    1   32 1
     4    1   33 1
     5    2    3 1
     6    2    4 1
     7    2    5 1
     8    3   34 1
     9    3   35 1
    10    3   36 1
    11    4   37 1
    12    4   38 1
    13    4   39 1
    14    5    6 2
    15    5    7 am
    16    7    8 1
    17    7   40 1
    18    8   13 ar
    19    8    9 ar
    20    9   10 ar
    21    9   41 1
    22   10   11 ar
    23   10   42 1
    24   11   12 ar
    25   11   43 1
    26   12   13 ar
    27   12   14 1
    28   13   44 1
    29   14   15 am
    30   14   45 1
    31   15   16 2
    32   15   17 1
    33   17   18 2
    34   17   19 am
    35   19   20 1
    36   19   46 1
    37   20   21 1
    38   20   47 1
    39   20   48 1
    40   21   22 1
    41   21   30 1
    42   21   23 1
    43   23   24 1
    44   23   49 1
    45   23   50 1
    46   24   29 ar
    47   24   25 ar
    48   25   26 ar
    49   25   51 1
    50   26   27 ar
    51   26   52 1
    52   27   28 ar
    53   27   53 1
    54   28   29 ar
    55   28   54 1
    56   29   30 1
