@<TRIPOS>MOLECULE
ZINC07049746
   60    61     0     0     0
SMALL
USER_CHARGES
N-(butylcarbamoyl)-2-[(6,7-dimethoxy-4-oxo-3H-quinazolin-2-yl)methyl-ethyl-amino]-acetamide
@<TRIPOS>ATOM
      1 C1         -4.0123   -0.3554  -10.0028 C.3       1 <0>        -0.1549
      2 C2         -4.2988    0.0176   -8.5469 C.3       1 <0>        -0.1228
      3 C3         -3.0564   -0.2550   -7.6965 C.3       1 <0>        -0.1324
      4 C4         -3.3429    0.1181   -6.2406 C.3       1 <0>         0.1296
      5 N1         -2.1533   -0.1429   -5.4265 N.am      1 <0>        -0.7265
      6 C5         -2.1730    0.1124   -4.1032 C.2       1 <0>         0.6903
      7 O1         -3.1778    0.5592   -3.5855 O.2       1 <0>        -0.5163
      8 N2         -1.0786   -0.1277   -3.3542 N.am      1 <0>        -0.6761
      9 C6         -1.0984    0.1277   -2.0310 C.2       1 <0>         0.5070
     10 O2         -2.1006    0.5733   -1.5145 O.2       1 <0>        -0.4517
     11 C7          0.1254   -0.1408   -1.1935 C.3       1 <0>        -0.0314
     12 C8          0.8246   -0.2963    1.1194 C.3       1 <0>        -0.0097
     13 C9          0.4222   -1.7588    1.3202 C.3       1 <0>        -0.1848
     14 C10         0.0023    1.8052    0.2420 C.3       1 <0>         0.0509
     15 C11        -0.4742    2.2820    1.5898 C.2       1 <0>         0.3571
     16 N3         -0.4539    3.6167    1.8461 N.am      1 <0>        -0.6440
     17 H1         -0.1271    4.2507    1.1452 H         1 <0>         0.4311
     18 C12        -0.8717    4.0956    3.0408 C.2       1 <0>         0.5573
     19 O3         -0.8589    5.2888    3.2830 O.2       1 <0>        -0.4836
     20 C13        -1.3416    3.1211    4.0340 C.ar      1 <0>        -0.1727
     21 C14        -1.7928    3.5146    5.2943 C.ar      1 <0>        -0.1086
     22 C15        -2.2248    2.5596    6.1910 C.ar      1 <0>         0.1149
     23 C16        -2.2113    1.2045    5.8434 C.ar      1 <0>         0.1592
     24 C17        -1.7671    0.8010    4.5993 C.ar      1 <0>        -0.1659
     25 C18        -1.3271    1.7530    3.6796 C.ar      1 <0>         0.1444
     26 N4         -0.8882    1.3977    2.4451 N.2       1 <0>        -0.5198
     27 O4         -2.6395    0.2766    6.7380 O.3       1 <0>        -0.2903
     28 C19        -2.6016   -1.0903    6.3232 C.3       1 <0>         0.0198
     29 O5         -2.6665    2.9376    7.4204 O.3       1 <0>        -0.2940
     30 C20        -2.6546    4.3365    7.7122 C.3       1 <0>         0.0186
     31 H2         -4.8974   -0.1613  -10.6085 H         1 <0>         0.0601
     32 H3         -3.1797    0.2422  -10.3739 H         1 <0>         0.0557
     33 H4         -3.7556   -1.4131  -10.0631 H         1 <0>         0.0557
     34 H5         -5.1314   -0.5801   -8.1757 H         1 <0>         0.0675
     35 H6         -4.5555    1.0752   -8.4866 H         1 <0>         0.0674
     36 H7         -2.2238    0.3427   -8.0677 H         1 <0>         0.0720
     37 H8         -2.7997   -1.3126   -7.7569 H         1 <0>         0.0722
     38 H9         -4.1755   -0.4796   -5.8695 H         1 <0>         0.0756
     39 H10        -3.5996    1.1757   -6.1803 H         1 <0>         0.0754
     40 H11        -1.3514   -0.4994   -5.8397 H         1 <0>         0.4030
     41 H12        -0.2767   -0.4842   -3.7674 H         1 <0>         0.4193
     42 H13         0.9814    0.3788   -1.6239 H         1 <0>         0.1715
     43 H14         0.3236   -1.2124   -1.1728 H         1 <0>         0.1741
     44 H15         1.8381   -0.2498    0.7209 H         1 <0>         0.1330
     45 H16         0.7858    0.2257    2.0755 H         1 <0>         0.1467
     46 H17         1.0429   -2.2028    2.0985 H         1 <0>         0.1091
     47 H18        -0.6252   -1.8099    1.6174 H         1 <0>         0.0841
     48 H19         0.5624   -2.3055    0.3877 H         1 <0>         0.0764
     49 H20         1.0412    2.1020    0.0980 H         1 <0>         0.1667
     50 H21        -0.6142    2.2496   -0.5394 H         1 <0>         0.1591
     51 H22        -1.8038    4.5598    5.5659 H         1 <0>         0.1589
     52 H23        -1.7610   -0.2473    4.3395 H         1 <0>         0.1564
     53 H24        -1.5758   -1.3683    6.0813 H         1 <0>         0.0611
     54 H25        -2.9695   -1.7250    7.1294 H         1 <0>         0.1118
     55 H26        -3.2306   -1.2204    5.4426 H         1 <0>         0.0617
     56 H27        -3.0306    4.5002    8.7222 H         1 <0>         0.1126
     57 H28        -1.6349    4.7143    7.6385 H         1 <0>         0.0621
     58 H29        -3.2893    4.8619    6.9987 H         1 <0>         0.0622
     59 N5         -0.1293    0.3342    0.1829 N.4       1 <0>        -0.3732
     60 H30        -1.0847    0.0737    0.4542 H         1 <0>         0.4471
@<TRIPOS>BOND
     1    1    2 1
     2    1   31 1
     3    1   32 1
     4    1   33 1
     5    2    3 1
     6    2   34 1
     7    2   35 1
     8    3    4 1
     9    3   36 1
    10    3   37 1
    11    4    5 1
    12    4   38 1
    13    4   39 1
    14    5    6 am
    15    5   40 1
    16    6    7 2
    17    6    8 am
    18    8    9 am
    19    8   41 1
    20    9   10 2
    21    9   11 1
    22   11   42 1
    23   11   43 1
    24   11   59 1
    25   12   13 1
    26   12   44 1
    27   12   45 1
    28   12   59 1
    29   13   46 1
    30   13   47 1
    31   13   48 1
    32   14   15 1
    33   14   49 1
    34   14   50 1
    35   14   59 1
    36   15   26 2
    37   15   16 1
    38   16   17 1
    39   16   18 am
    40   18   19 2
    41   18   20 1
    42   20   25 ar
    43   20   21 ar
    44   21   22 ar
    45   21   51 1
    46   22   23 ar
    47   22   29 1
    48   23   24 ar
    49   23   27 1
    50   24   25 ar
    51   24   52 1
    52   25   26 1
    53   27   28 1
    54   28   53 1
    55   28   54 1
    56   28   55 1
    57   29   30 1
    58   30   56 1
    59   30   57 1
    60   30   58 1
    61   59   60 1
