@<TRIPOS>MOLECULE
ZINC39604737
   66    70     0     0     0
SMALL
USER_CHARGES

@<TRIPOS>ATOM
      1 C1         -0.0508    1.3338   -0.0512 C.3       1 <0>        -0.0970
      2 C2         -0.1381   -0.1703   -0.0841 C.2       1 <0>         0.1284
      3 C3         -1.2875   -0.9045   -0.0711 C.2       1 <0>        -0.3022
      4 C4         -0.8878   -2.3192   -0.1153 C.2       1 <0>         0.1746
      5 N1          0.4205   -2.3439   -0.1505 N.2       1 <0>        -0.2666
      6 O1          0.8967   -1.0130   -0.1368 O.3       1 <0>        -0.0674
      7 C5         -1.7938   -3.4933   -0.1192 C.ar      1 <0>        -0.0420
      8 C6         -3.1752   -3.3112   -0.0841 C.ar      1 <0>        -0.0742
      9 C7         -4.0135   -4.4071   -0.0878 C.ar      1 <0>        -0.1160
     10 C8         -3.4859   -5.6857   -0.1263 C.ar      1 <0>        -0.0784
     11 C9         -2.1165   -5.8737   -0.1608 C.ar      1 <0>        -0.1102
     12 C10        -1.2670   -4.7839   -0.1637 C.ar      1 <0>        -0.0055
     13 Cl1         0.4520   -5.0208   -0.2149 Cl        1 <0>        -0.0267
     14 C11        -2.6634   -0.3815   -0.0216 C.2       1 <0>         0.6264
     15 O2         -3.2598   -0.1404   -1.0538 O.2       1 <0>        -0.5113
     16 N2         -3.2615   -0.1700    1.1675 N.am      1 <0>        -0.6166
     17 C12        -2.6992   -0.3954    2.5198 C.3       1 <0>         0.1117
     18 C13        -3.2084    0.7984    3.3583 C.3       1 <0>        -0.1127
     19 H1         -2.4620    1.5924    3.3804 H         1 <0>         0.1119
     20 C14        -4.4767    1.2758    2.6314 C.3       1 <0>        -0.0707
     21 C15        -4.6284    0.3469    1.4180 C.3       1 <0>         0.1065
     22 C16        -5.6898    1.1515    3.5481 C.3       1 <0>        -0.1475
     23 C17        -6.9283    1.6863    2.8236 C.3       1 <0>        -0.0073
     24 N3         -6.7125    3.0899    2.4523 N.4       1 <0>        -0.5047
     25 C18        -5.6020    3.1901    1.4975 C.3       1 <0>        -0.0111
     26 C19        -4.3074    2.7190    2.1661 C.3       1 <0>        -0.1351
     27 C20        -3.5400    0.3522    4.7590 C.2       1 <0>         0.5187
     28 O3         -3.9310   -0.7783    4.9588 O.2       1 <0>        -0.5219
     29 N4         -3.4022    1.2096    5.7898 N.am      1 <0>        -0.7200
     30 C21        -3.7246    0.7759    7.1514 C.3       1 <0>         0.1083
     31 C22        -3.4832    1.9310    8.1252 C.3       1 <0>         0.0676
     32 H2         -2.4656    2.3044    8.0107 H         1 <0>         0.0902
     33 C23        -3.7040    1.4486    9.5750 C.3       1 <0>        -0.1499
     34 C24        -4.4173    2.6668   10.2226 C.3       1 <0>        -0.1577
     35 C25        -5.2509    3.1899    9.0258 C.3       1 <0>         0.0499
     36 O4         -4.4191    2.9850    7.8705 O.3       1 <0>        -0.3829
     37 H3          0.9956    1.6377   -0.0767 H         1 <0>         0.0990
     38 H4         -0.5703    1.7468   -0.9159 H         1 <0>         0.1032
     39 H5         -0.5148    1.7047    0.8627 H         1 <0>         0.0951
     40 H6         -3.5888   -2.3140   -0.0536 H         1 <0>         0.1295
     41 H7         -5.0840   -4.2667   -0.0603 H         1 <0>         0.1374
     42 H8         -4.1463   -6.5402   -0.1291 H         1 <0>         0.1430
     43 H9         -1.7102   -6.8739   -0.1901 H         1 <0>         0.1461
     44 H10        -3.0675   -1.3345    2.9329 H         1 <0>         0.1028
     45 H11        -1.6098   -0.3967    2.4830 H         1 <0>         0.0908
     46 H12        -4.9879    0.9062    0.5542 H         1 <0>         0.0928
     47 H13        -5.3081   -0.4726    1.6515 H         1 <0>         0.0882
     48 H14        -5.8440    0.1041    3.8077 H         1 <0>         0.1266
     49 H15        -5.5208    1.7308    4.4559 H         1 <0>         0.0999
     50 H16        -7.1061    1.0961    1.9246 H         1 <0>         0.1331
     51 H17        -7.7938    1.6139    3.4822 H         1 <0>         0.1390
     52 H18        -7.5518    3.4575    2.0298 H         1 <0>         0.4342
     53 H19        -5.8113    2.5641    0.6301 H         1 <0>         0.1341
     54 H20        -5.4897    4.2263    1.1786 H         1 <0>         0.1402
     55 H21        -4.0887    3.3546    3.0242 H         1 <0>         0.0985
     56 H22        -3.4866    2.7769    1.4511 H         1 <0>         0.1177
     57 H23        -3.0895    2.1138    5.6300 H         1 <0>         0.4040
     58 H24        -4.7709    0.4738    7.1984 H         1 <0>         0.0758
     59 H25        -3.0903   -0.0676    7.4239 H         1 <0>         0.0841
     60 H26        -4.3447    0.5671    9.5972 H         1 <0>         0.0836
     61 H27        -2.7519    1.2500   10.0671 H         1 <0>         0.0906
     62 H28        -5.0623    2.3535   11.0436 H         1 <0>         0.0894
     63 H29        -3.6960    3.4132   10.5551 H         1 <0>         0.0830
     64 H30        -6.1763    2.6217    8.9322 H         1 <0>         0.0619
     65 H31        -5.4683    4.2506    9.1511 H         1 <0>         0.0890
     66 H32        -6.4929    3.6251    3.2790 H         1 <0>         0.4288
@<TRIPOS>BOND
     1    1    2 1
     2    1   37 1
     3    1   38 1
     4    1   39 1
     5    2    6 1
     6    2    3 2
     7    3    4 1
     8    3   14 1
     9    4    5 2
    10    4    7 1
    11    5    6 1
    12    7   12 ar
    13    7    8 ar
    14    8    9 ar
    15    8   40 1
    16    9   10 ar
    17    9   41 1
    18   10   11 ar
    19   10   42 1
    20   11   12 ar
    21   11   43 1
    22   12   13 1
    23   14   15 2
    24   14   16 am
    25   16   21 1
    26   16   17 1
    27   17   18 1
    28   17   44 1
    29   17   45 1
    30   18   19 1
    31   18   20 1
    32   18   27 1
    33   20   26 1
    34   20   21 1
    35   20   22 1
    36   21   46 1
    37   21   47 1
    38   22   23 1
    39   22   48 1
    40   22   49 1
    41   23   24 1
    42   23   50 1
    43   23   51 1
    44   24   25 1
    45   24   52 1
    46   24   66 1
    47   25   26 1
    48   25   53 1
    49   25   54 1
    50   26   55 1
    51   26   56 1
    52   27   28 2
    53   27   29 am
    54   29   30 1
    55   29   57 1
    56   30   31 1
    57   30   58 1
    58   30   59 1
    59   31   32 1
    60   31   36 1
    61   31   33 1
    62   33   34 1
    63   33   60 1
    64   33   61 1
    65   34   35 1
    66   34   62 1
    67   34   63 1
    68   35   36 1
    69   35   64 1
    70   35   65 1
