@<TRIPOS>MOLECULE
ZINC35774360
   35    36     0     0     0
SMALL
USER_CHARGES

@<TRIPOS>ATOM
      1 C1         -0.0187    1.5258    0.0104 C.3       1 <0>        -0.1610
      2 C2          0.0021   -0.0041    0.0020 C.3       1 <0>         0.1349
      3 H1         -1.0191   -0.3851    0.0097 H         1 <0>         0.0711
      4 C3          0.7301   -0.5036   -1.2511 C.3       1 <0>         0.0491
      5 O1          0.9080   -1.9192   -1.1593 O.3       1 <0>        -0.3774
      6 C4          1.7230   -2.3366   -0.0613 C.3       1 <0>         0.0443
      7 C5          1.0458   -1.9309    1.2527 C.3       1 <0>         0.1077
      8 N1          0.7237   -0.4964    1.1862 N.pl3     1 <0>        -0.6773
      9 C6          1.0937    0.3742    2.2184 C.ar      1 <0>         0.1596
     10 C7          0.2344    0.5938    3.2843 C.ar      1 <0>        -0.1008
     11 C8          0.6020    1.4537    4.3028 C.ar      1 <0>        -0.0682
     12 C9          1.8254    2.0965    4.2625 C.ar      1 <0>        -0.6303
     13 C10         2.6883    1.8834    3.2034 C.ar      1 <0>        -0.0950
     14 C11         2.3300    1.0187    2.1804 C.ar      1 <0>         0.1904
     15 N2          3.2046    0.7972    1.1096 N.pl3     1 <0>        -0.8715
     16 S1          2.2858    3.1911    5.5642 S.o2      1 <0>         2.7011
     17 O2          3.2462    4.0867    5.0212 O.2       1 <0>        -0.9646
     18 O3          1.0782    3.6406    6.1632 O.2       1 <0>        -0.9624
     19 N3          3.0737    2.2884    6.7073 N.pl3     1 <0>        -1.2500
     20 H2          1.0039    1.9031    0.0027 H         1 <0>         0.0624
     21 H3         -0.5459    1.8868   -0.8726 H         1 <0>         0.0713
     22 H4         -0.5289    1.8773    0.9072 H         1 <0>         0.0662
     23 H5          0.1372   -0.2678   -2.1349 H         1 <0>         0.1024
     24 H6          1.7033   -0.0184   -1.3246 H         1 <0>         0.0499
     25 H7          1.8445   -3.4194   -0.0891 H         1 <0>         0.1031
     26 H8          2.6998   -1.8580   -0.1304 H         1 <0>         0.0490
     27 H9          0.1299   -2.5064    1.3867 H         1 <0>         0.0639
     28 H10         1.7222   -2.1169    2.0870 H         1 <0>         0.0797
     29 H11        -0.7221    0.0936    3.3188 H         1 <0>         0.1331
     30 H12        -0.0686    1.6239    5.1321 H         1 <0>         0.1413
     31 H13         3.6431    2.3875    3.1749 H         1 <0>         0.1412
     32 H14         2.9510    0.1948    0.3928 H         1 <0>         0.3984
     33 H15         4.0641    1.2461    1.0845 H         1 <0>         0.4003
     34 H16         3.1984    1.3360    6.5719 H         1 <0>         0.4168
     35 H17         3.4106    2.7121    7.5123 H         1 <0>         0.4210
@<TRIPOS>BOND
     1    1    2 1
     2    1   20 1
     3    1   21 1
     4    1   22 1
     5    2    3 1
     6    2    8 1
     7    2    4 1
     8    4    5 1
     9    4   23 1
    10    4   24 1
    11    5    6 1
    12    6    7 1
    13    6   25 1
    14    6   26 1
    15    7    8 1
    16    7   27 1
    17    7   28 1
    18    8    9 1
    19    9   14 ar
    20    9   10 ar
    21   10   11 ar
    22   10   29 1
    23   11   12 ar
    24   11   30 1
    25   12   13 ar
    26   12   16 1
    27   13   14 ar
    28   13   31 1
    29   14   15 1
    30   15   32 1
    31   15   33 1
    32   16   17 2
    33   16   18 2
    34   16   19 1
    35   19   34 1
    36   19   35 1
