@<TRIPOS>MOLECULE
ZINC14468535
   62    66     0     0     0
SMALL
USER_CHARGES
[4-[(3aR,4S,9bS)-8-morpholinosulfonyl-3a,4,5,9b-tetrahydro-3H-cyclopenta[c]quinolin-4-yl]-2-methoxy-phenyl] acetate
@<TRIPOS>ATOM
      1 C1         -1.4878    0.0678   -1.2603 C.3       1 <0>        -0.1452
      2 C2         -1.4110    1.5699   -1.1668 C.2       1 <0>         0.4557
      3 O1         -1.5535    2.2450   -2.1587 O.2       1 <0>        -0.4953
      4 O2         -1.1899    2.1581    0.0194 O.3       1 <0>        -0.2854
      5 C3         -1.0320    3.5088    0.0189 C.ar      1 <0>         0.0526
      6 C4          0.2381    4.0596   -0.0446 C.ar      1 <0>        -0.0857
      7 C5          0.3968    5.4327   -0.0450 C.ar      1 <0>        -0.1244
      8 C6         -0.7096    6.2596    0.0174 C.ar      1 <0>        -0.0441
      9 C7         -1.9792    5.7170    0.0814 C.ar      1 <0>        -0.1865
     10 C8         -2.1458    4.3412    0.0764 C.ar      1 <0>         0.1319
     11 O3         -3.3944    3.8058    0.1332 O.3       1 <0>        -0.3096
     12 C9         -4.4906    4.7207    0.1903 C.3       1 <0>         0.0263
     13 C10        -0.5307    7.7560    0.0162 C.3       1 <0>         0.1976
     14 H1         -1.4243    8.2308    0.4214 H         1 <0>         0.1032
     15 C11        -0.2957    8.2433   -1.4164 C.3       1 <0>        -0.0968
     16 H2         -0.2942    9.3305   -1.4946 H         1 <0>         0.1037
     17 C12        -1.3581    7.5526   -2.3212 C.3       1 <0>        -0.0927
     18 C13        -0.7521    6.1902   -2.5973 C.2       1 <0>        -0.1580
     19 C14         0.5454    6.2187   -2.4144 C.2       1 <0>        -0.1534
     20 C15         0.9826    7.5996   -1.9876 C.3       1 <0>        -0.0136
     21 H3          1.3160    8.1623   -2.8595 H         1 <0>         0.0958
     22 C16         2.0986    7.5362   -0.9939 C.ar      1 <0>        -0.1569
     23 C17         3.3716    7.2100   -1.4415 C.ar      1 <0>         0.0207
     24 C18         4.4296    7.1427   -0.5583 C.ar      1 <0>        -0.7241
     25 C19         4.2341    7.4002    0.7864 C.ar      1 <0>         0.0201
     26 C20         2.9723    7.7238    1.2438 C.ar      1 <0>        -0.2045
     27 C21         1.9064    7.7900    0.3553 C.ar      1 <0>         0.2717
     28 N1          0.6324    8.1124    0.8356 N.pl3     1 <0>        -0.7348
     29 S1          6.0378    6.7274   -1.1467 S.o2      1 <0>         2.6924
     30 O4          6.7511    6.1965   -0.0383 O.2       1 <0>        -0.9557
     31 O5          5.8534    5.9997   -2.3532 O.2       1 <0>        -0.9553
     32 N2          6.7895    8.1442   -1.5586 N.pl3     1 <0>        -1.0026
     33 C22         6.6837    8.6895   -2.9213 C.3       1 <0>         0.0862
     34 C23         6.2593   10.1631   -2.8161 C.3       1 <0>         0.0473
     35 O6          7.1477   10.8447   -1.9273 O.3       1 <0>        -0.3753
     36 C24         7.1240   10.3530   -0.5851 C.3       1 <0>         0.0472
     37 C25         7.5881    8.8920   -0.5745 C.3       1 <0>         0.0862
     38 H4         -1.6764   -0.2228   -2.2938 H         1 <0>         0.1039
     39 H5         -0.5447   -0.3657   -0.9274 H         1 <0>         0.1023
     40 H6         -2.2978   -0.2948   -0.6274 H         1 <0>         0.1024
     41 H7          1.1040    3.4160   -0.0942 H         1 <0>         0.1341
     42 H8          1.3871    5.8606   -0.0946 H         1 <0>         0.1437
     43 H9         -2.8417    6.3652    0.1301 H         1 <0>         0.1339
     44 H10        -4.3983    5.3433    1.0801 H         1 <0>         0.0570
     45 H11        -4.4831    5.3526   -0.6978 H         1 <0>         0.0571
     46 H12        -5.4268    4.1639    0.2320 H         1 <0>         0.1028
     47 H13        -2.3058    7.4515   -1.7923 H         1 <0>         0.0721
     48 H14        -1.4922    8.1086   -3.2491 H         1 <0>         0.0822
     49 H15        -1.3117    5.3181   -2.9019 H         1 <0>         0.1268
     50 H16         1.2067    5.3756   -2.5492 H         1 <0>         0.1262
     51 H17         3.5352    7.0076   -2.4897 H         1 <0>         0.1372
     52 H18         5.0643    7.3486    1.4752 H         1 <0>         0.1394
     53 H19         2.8139    7.9259    2.2928 H         1 <0>         0.1332
     54 H20         0.5213    8.5606    1.6886 H         1 <0>         0.4106
     55 H21         7.6495    8.6175   -3.4215 H         1 <0>         0.0850
     56 H22         5.9359    8.1301   -3.4835 H         1 <0>         0.0993
     57 H23         5.2412   10.2249   -2.4314 H         1 <0>         0.0571
     58 H24         6.3054   10.6253   -3.8022 H         1 <0>         0.1071
     59 H25         6.1091   10.4155   -0.1923 H         1 <0>         0.0567
     60 H26         7.7917   10.9516    0.0346 H         1 <0>         0.1074
     61 H27         7.4395    8.4668    0.4181 H         1 <0>         0.0993
     62 H28         8.6434    8.8395   -0.8421 H         1 <0>         0.0847
@<TRIPOS>BOND
     1    1    2 1
     2    1   38 1
     3    1   39 1
     4    1   40 1
     5    2    3 2
     6    2    4 1
     7    4    5 1
     8    5   10 ar
     9    5    6 ar
    10    6    7 ar
    11    6   41 1
    12    7    8 ar
    13    7   42 1
    14    8    9 ar
    15    8   13 1
    16    9   10 ar
    17    9   43 1
    18   10   11 1
    19   11   12 1
    20   12   44 1
    21   12   45 1
    22   12   46 1
    23   13   14 1
    24   13   28 1
    25   13   15 1
    26   15   16 1
    27   15   20 1
    28   15   17 1
    29   17   18 1
    30   17   47 1
    31   17   48 1
    32   18   19 2
    33   18   49 1
    34   19   20 1
    35   19   50 1
    36   20   21 1
    37   20   22 1
    38   22   27 ar
    39   22   23 ar
    40   23   24 ar
    41   23   51 1
    42   24   25 ar
    43   24   29 1
    44   25   26 ar
    45   25   52 1
    46   26   27 ar
    47   26   53 1
    48   27   28 1
    49   28   54 1
    50   29   30 2
    51   29   31 2
    52   29   32 1
    53   32   37 1
    54   32   33 1
    55   33   34 1
    56   33   55 1
    57   33   56 1
    58   34   35 1
    59   34   57 1
    60   34   58 1
    61   35   36 1
    62   36   37 1
    63   36   59 1
    64   36   60 1
    65   37   61 1
    66   37   62 1
