@<TRIPOS>MOLECULE
ZINC67280827
   50    52     0     0     0
SMALL
USER_CHARGES

@<TRIPOS>ATOM
      1 C1          0.2054    0.4313    1.7633 C.3       1 <0>        -0.1502
      2 C2          0.0308   -0.9202    1.0679 C.3       1 <0>         0.0769
      3 C3          0.4132   -2.0438    2.0335 C.3       1 <0>        -0.1828
      4 O1         -1.3323   -1.0782    0.6691 O.3       1 <0>        -0.3096
      5 C4         -1.5788   -1.9282   -0.3614 C.ar      1 <0>         0.1347
      6 C5         -0.5305   -2.6122   -0.9607 C.ar      1 <0>        -0.1933
      7 C6         -0.7750   -3.4758   -2.0067 C.ar      1 <0>        -0.0448
      8 C7         -2.0809   -3.6649   -2.4668 C.ar      1 <0>        -0.0465
      9 C8         -3.1372   -2.9769   -1.8643 C.ar      1 <0>        -0.0504
     10 C9         -2.8859   -2.1160   -0.8113 C.ar      1 <0>         0.1337
     11 N1         -3.9435   -1.4280   -0.2002 N.am      1 <0>        -0.6719
     12 C10        -5.1893   -1.9411   -0.2327 C.2       1 <0>         0.7119
     13 O2         -5.4115   -2.9588   -0.8600 O.2       1 <0>        -0.5667
     14 N2         -6.1888   -1.3263    0.4302 N.am      1 <0>        -0.6271
     15 C11        -5.9727   -0.0318    1.0956 C.3       1 <0>         0.0719
     16 C12        -7.0793    0.9313    0.6507 C.3       1 <0>         0.0494
     17 O3         -8.3520    0.3146    0.8598 O.3       1 <0>        -0.3667
     18 C13        -8.5595   -0.8741    0.0931 C.3       1 <0>         0.1215
     19 H1         -8.4421   -0.6487   -0.9668 H         1 <0>         0.0777
     20 C14        -7.5302   -1.9268    0.5047 C.3       1 <0>         0.1060
     21 C15        -9.9493   -1.3994    0.3452 C.ar      1 <0>        -0.0591
     22 C16       -10.5208   -1.2692    1.5975 C.ar      1 <0>        -0.1000
     23 C17       -11.7954   -1.7506    1.8301 C.ar      1 <0>        -0.0917
     24 C18       -12.5001   -2.3632    0.8110 C.ar      1 <0>        -0.1469
     25 C19       -11.9289   -2.4941   -0.4433 C.ar      1 <0>         0.0997
     26 C20       -10.6542   -2.0060   -0.6768 C.ar      1 <0>        -0.1400
     27 F1        -12.6166   -3.0931   -1.4401 F         1 <0>        -0.1369
     28 C21        -2.3359   -4.5616   -3.5537 C.1       1 <0>         0.2579
     29 N3         -2.5383   -5.2730   -4.4160 N.1       1 <0>        -0.4156
     30 H2          1.2451    0.5518    2.0675 H         1 <0>         0.0803
     31 H3         -0.0670    1.2318    1.0755 H         1 <0>         0.0663
     32 H4         -0.4376    0.4733    2.6425 H         1 <0>         0.0680
     33 H5          0.6738   -0.9622    0.1887 H         1 <0>         0.0792
     34 H6         -0.2298   -2.0018    2.9126 H         1 <0>         0.0685
     35 H7          0.2888   -3.0067    1.5380 H         1 <0>         0.0652
     36 H8          1.4529   -1.9233    2.3376 H         1 <0>         0.0754
     37 H9          0.4795   -2.4671   -0.6068 H         1 <0>         0.1458
     38 H10         0.0430   -4.0063   -2.4712 H         1 <0>         0.1381
     39 H11        -4.1478   -3.1200   -2.2172 H         1 <0>         0.1710
     40 H12        -3.7786   -0.5826    0.2459 H         1 <0>         0.4124
     41 H13        -6.0134   -0.1635    2.1768 H         1 <0>         0.0862
     42 H14        -5.0002    0.3697    0.8105 H         1 <0>         0.0886
     43 H15        -7.0193    1.8496    1.2348 H         1 <0>         0.1143
     44 H16        -6.9565    1.1631   -0.4072 H         1 <0>         0.0603
     45 H17        -7.5886   -2.7797   -0.1715 H         1 <0>         0.1096
     46 H18        -7.7304   -2.2526    1.5254 H         1 <0>         0.0821
     47 H19        -9.9706   -0.7914    2.3946 H         1 <0>         0.1364
     48 H20       -12.2408   -1.6484    2.8087 H         1 <0>         0.1363
     49 H21       -13.4957   -2.7399    0.9932 H         1 <0>         0.1375
     50 H22       -10.2093   -2.1036   -1.6561 H         1 <0>         0.1376
@<TRIPOS>BOND
     1    1    2 1
     2    1   30 1
     3    1   31 1
     4    1   32 1
     5    2    3 1
     6    2    4 1
     7    2   33 1
     8    3   34 1
     9    3   35 1
    10    3   36 1
    11    4    5 1
    12    5   10 ar
    13    5    6 ar
    14    6    7 ar
    15    6   37 1
    16    7    8 ar
    17    7   38 1
    18    8    9 ar
    19    8   28 1
    20    9   10 ar
    21    9   39 1
    22   10   11 1
    23   11   12 am
    24   11   40 1
    25   12   13 2
    26   12   14 am
    27   14   20 1
    28   14   15 1
    29   15   16 1
    30   15   41 1
    31   15   42 1
    32   16   17 1
    33   16   43 1
    34   16   44 1
    35   17   18 1
    36   18   19 1
    37   18   20 1
    38   18   21 1
    39   20   45 1
    40   20   46 1
    41   21   26 ar
    42   21   22 ar
    43   22   23 ar
    44   22   47 1
    45   23   24 ar
    46   23   48 1
    47   24   25 ar
    48   24   49 1
    49   25   26 ar
    50   25   27 1
    51   26   50 1
    52   28   29 3
