@<TRIPOS>MOLECULE
ZINC64761646
   63    66     0     0     0
SMALL
USER_CHARGES

@<TRIPOS>ATOM
      1 C1         -3.5689    1.8414    0.0983 C.3       1 <0>        -0.1539
      2 C2         -3.2539    0.3447    0.1349 C.3       1 <0>         0.0606
      3 O1         -4.4559   -0.4003   -0.0709 O.3       1 <0>        -0.3455
      4 C3         -4.3516   -1.7385   -0.0674 C.2       1 <0>         0.4610
      5 O2         -3.2754   -2.2601    0.1047 O.2       1 <0>        -0.5055
      6 C4         -5.5768   -2.5903   -0.2782 C.3       1 <0>         0.1461
      7 N1         -5.2016   -4.0056   -0.2308 N.am      1 <0>        -0.7426
      8 C5         -6.1411   -4.9578   -0.3955 C.2       1 <0>         0.7150
      9 O3         -7.3122   -4.6458   -0.4931 O.2       1 <0>        -0.5832
     10 N2         -5.7826   -6.2557   -0.4520 N.am      1 <0>        -0.6261
     11 C6         -4.3890   -6.6582   -0.2184 C.3       1 <0>         0.1097
     12 C7         -3.9154   -7.5060   -1.4032 C.3       1 <0>        -0.1268
     13 C8         -4.8815   -8.6752   -1.6072 C.3       1 <0>        -0.0485
     14 C9         -6.2776   -8.1357   -1.9267 C.3       1 <0>        -0.1272
     15 C10        -6.7791   -7.2957   -0.7423 C.3       1 <0>         0.1296
     16 C11        -4.4001   -9.5307   -2.7506 C.2       1 <0>        -0.0265
     17 C12        -4.2555   -8.9819   -4.0322 C.2       1 <0>        -0.1521
     18 C13        -3.8236   -9.7489   -5.0583 C.2       1 <0>         0.1168
     19 N3         -3.5226  -11.0635   -4.8654 N.pl3     1 <0>        -0.2667
     20 C14        -3.6553  -11.6215   -3.6260 C.2       1 <0>         0.1618
     21 C15        -4.0957  -10.8450   -2.5463 C.2       1 <0>        -0.1111
     22 C16        -3.2758  -12.9730   -3.7425 C.2       1 <0>        -0.3103
     23 C17        -2.9194  -13.1815   -5.0860 C.2       1 <0>         0.1155
     24 N4         -3.0663  -12.0583   -5.7388 N.2       1 <0>        -0.3144
     25 C18        -3.2560  -13.9704   -2.6687 C.2       1 <0>         0.6034
     26 O4         -4.2285  -14.1105   -1.9502 O.2       1 <0>        -0.5413
     27 N5         -2.1610  -14.7323   -2.4768 N.am      1 <0>        -0.6070
     28 C19        -1.0112  -14.6331   -3.3861 C.3       1 <0>         0.1012
     29 C20         0.2501  -14.3662   -2.5588 C.3       1 <0>        -0.1352
     30 C21         0.3894  -15.4479   -1.4851 C.3       1 <0>        -0.1211
     31 C22        -0.8209  -15.3995   -0.5498 C.3       1 <0>        -0.1352
     32 C23        -2.0920  -15.6737   -1.3508 C.3       1 <0>         0.1122
     33 H1         -2.6521    2.4096    0.2553 H         1 <0>         0.0823
     34 H2         -3.9948    2.0995   -0.8713 H         1 <0>         0.0686
     35 H3         -4.2844    2.0815    0.8848 H         1 <0>         0.0688
     36 H4         -2.5385    0.1046   -0.6516 H         1 <0>         0.0705
     37 H5         -2.8281    0.0866    1.1046 H         1 <0>         0.0706
     38 H6         -6.3043   -2.3808    0.5060 H         1 <0>         0.1151
     39 H7         -6.0146   -2.3628   -1.2501 H         1 <0>         0.1137
     40 H8         -4.2769   -4.2575   -0.0809 H         1 <0>         0.4072
     41 H9         -3.7622   -5.7708   -0.1303 H         1 <0>         0.0817
     42 H10        -4.3267   -7.2445    0.6984 H         1 <0>         0.0765
     43 H11        -3.8920   -6.8920   -2.3035 H         1 <0>         0.0741
     44 H12        -2.9163   -7.8910   -1.1988 H         1 <0>         0.0817
     45 H13        -4.9232   -9.2747   -0.6979 H         1 <0>         0.0911
     46 H14        -6.2320   -7.5158   -2.8221 H         1 <0>         0.0734
     47 H15        -6.9599   -8.9690   -2.0949 H         1 <0>         0.0830
     48 H16        -6.9077   -7.9329    0.1327 H         1 <0>         0.0714
     49 H17        -7.7298   -6.8290   -1.0000 H         1 <0>         0.0998
     50 H18        -4.4905   -7.9413   -4.2009 H         1 <0>         0.1577
     51 H19        -3.7165   -9.3149   -6.0414 H         1 <0>         0.1741
     52 H20        -4.1968  -11.2827   -1.5642 H         1 <0>         0.1510
     53 H21        -2.5798  -14.1153   -5.5091 H         1 <0>         0.1983
     54 H22        -0.8974  -15.5681   -3.9347 H         1 <0>         0.0712
     55 H23        -1.1691  -13.8130   -4.0866 H         1 <0>         0.0894
     56 H24         1.1236  -14.3859   -3.2105 H         1 <0>         0.0756
     57 H25         0.1728  -13.3888   -2.0826 H         1 <0>         0.0658
     58 H26         0.4418  -16.4272   -1.9609 H         1 <0>         0.0656
     59 H27         1.2994  -15.2743   -0.9107 H         1 <0>         0.0660
     60 H28        -0.7098  -16.1546    0.2284 H         1 <0>         0.0768
     61 H29        -0.8881  -14.4124   -0.0925 H         1 <0>         0.0656
     62 H30        -2.9627  -15.5400   -0.7089 H         1 <0>         0.0932
     63 H31        -2.0682  -16.6955   -1.7297 H         1 <0>         0.0677
@<TRIPOS>BOND
     1    1    2 1
     2    1   33 1
     3    1   34 1
     4    1   35 1
     5    2    3 1
     6    2   36 1
     7    2   37 1
     8    3    4 1
     9    4    5 2
    10    4    6 1
    11    6    7 1
    12    6   38 1
    13    6   39 1
    14    7    8 am
    15    7   40 1
    16    8    9 2
    17    8   10 am
    18   10   15 1
    19   10   11 1
    20   11   12 1
    21   11   41 1
    22   11   42 1
    23   12   13 1
    24   12   43 1
    25   12   44 1
    26   13   14 1
    27   13   16 1
    28   13   45 1
    29   14   15 1
    30   14   46 1
    31   14   47 1
    32   15   48 1
    33   15   49 1
    34   16   21 2
    35   16   17 1
    36   17   18 2
    37   17   50 1
    38   18   19 1
    39   18   51 1
    40   19   24 1
    41   19   20 1
    42   20   21 1
    43   20   22 2
    44   21   52 1
    45   22   23 1
    46   22   25 1
    47   23   24 2
    48   23   53 1
    49   25   26 2
    50   25   27 am
    51   27   32 1
    52   27   28 1
    53   28   29 1
    54   28   54 1
    55   28   55 1
    56   29   30 1
    57   29   56 1
    58   29   57 1
    59   30   31 1
    60   30   58 1
    61   30   59 1
    62   31   32 1
    63   31   60 1
    64   31   61 1
    65   32   62 1
    66   32   63 1
