@<TRIPOS>MOLECULE
ZINC26269451
   75    79     0     0     0
SMALL
USER_CHARGES
1-[3-[(4S)-1-[(1R)-1-benzyl-2-oxo-2-spiro[indane-1,4'-piperidine]-1'-yl-ethyl]-2,5-dioxo-imidazolidin-4-yl]propyl]guanidine
@<TRIPOS>ATOM
      1 C1         -4.3911    4.2459   -6.4886 C.ar      1 <0>        -0.1158
      2 C2         -4.6875    3.2388   -5.5893 C.ar      1 <0>        -0.1123
      3 C3         -3.8881    3.0473   -4.4779 C.ar      1 <0>        -0.1110
      4 C4         -2.7918    3.8623   -4.2663 C.ar      1 <0>        -0.0886
      5 C5         -2.4982    4.8725   -5.1631 C.ar      1 <0>        -0.1129
      6 C6         -3.2951    5.0612   -6.2768 C.ar      1 <0>        -0.1173
      7 C7         -1.9203    3.6535   -3.0547 C.3       1 <0>        -0.0953
      8 C8         -0.8005    2.6683   -3.3956 C.3       1 <0>         0.1425
      9 H1         -1.2077    1.7393   -3.8213 H         1 <0>         0.1292
     10 C9         -0.0100    2.3560   -2.1512 C.2       1 <0>         0.5092
     11 O1          1.0555    2.9017   -1.9568 O.2       1 <0>        -0.5088
     12 N1         -0.4871    1.4704   -1.2542 N.am      1 <0>        -0.6046
     13 C10        -1.8236    0.8831   -1.4209 C.3       1 <0>         0.0963
     14 C11        -1.7012   -0.6441   -1.3874 C.3       1 <0>        -0.1227
     15 C12        -0.9698   -1.0631   -0.1112 C.3       1 <0>        -0.0163
     16 C13        -1.7758   -0.6218    1.1242 C.3       1 <0>        -0.1210
     17 C14        -1.5120   -1.7734    2.1187 C.3       1 <0>        -0.0810
     18 C15        -1.2043   -2.9794    1.2567 C.ar      1 <0>        -0.0889
     19 C16        -0.8895   -2.5690   -0.0265 C.ar      1 <0>        -0.0883
     20 C17        -0.5683   -3.5096   -0.9905 C.ar      1 <0>        -0.1030
     21 C18        -0.5631   -4.8546   -0.6759 C.ar      1 <0>        -0.1210
     22 C19        -0.8792   -5.2645    0.6056 C.ar      1 <0>        -0.1156
     23 C20        -1.1990   -4.3279    1.5695 C.ar      1 <0>        -0.1073
     24 C21         0.4287   -0.4543   -0.0660 C.3       1 <0>        -0.1159
     25 C22         0.3199    1.0741   -0.0921 C.3       1 <0>         0.1105
     26 N2          0.0846    3.2634   -4.3999 N.am      1 <0>        -0.5577
     27 C23         0.3109    2.7342   -5.6185 C.2       1 <0>         0.5281
     28 O2         -0.1616    1.7145   -6.0732 O.2       1 <0>        -0.4619
     29 C24         1.2783    3.6795   -6.3026 C.3       1 <0>         0.0851
     30 H2          0.8853    4.1024   -7.2389 H         1 <0>         0.1299
     31 N3          1.5062    4.7302   -5.2956 N.am      1 <0>        -0.7398
     32 C25         0.7637    4.4025   -4.2228 C.2       1 <0>         0.7160
     33 O3          0.7175    5.0653   -3.2051 O.2       1 <0>        -0.5088
     34 C26         2.5873    2.9612   -6.6368 C.3       1 <0>        -0.1240
     35 C27         3.4946    3.8996   -7.4350 C.3       1 <0>        -0.1295
     36 C28         4.8035    3.1813   -7.7692 C.3       1 <0>         0.0993
     37 N4          5.6722    4.0799   -8.5335 N.pl3     1 <0>        -0.7194
     38 C29         6.9106    3.6504   -8.9483 C.cat     1 <0>         0.7382
     39 N5          7.3118    2.4439   -8.6617 N.pl3     1 <0>        -0.8149
     40 N6          7.7259    4.4937   -9.6656 N.pl3     1 <0>        -0.8524
     41 H3         -5.0157    4.3955   -7.3569 H         1 <0>         0.1242
     42 H4         -5.5438    2.6018   -5.7547 H         1 <0>         0.1261
     43 H5         -4.1199    2.2607   -3.7750 H         1 <0>         0.1237
     44 H6         -1.6442    5.5120   -4.9955 H         1 <0>         0.1135
     45 H7         -3.0633    5.8478   -6.9796 H         1 <0>         0.1217
     46 H8         -1.4822    4.6148   -2.7481 H         1 <0>         0.1054
     47 H9         -2.5274    3.2482   -2.2318 H         1 <0>         0.0995
     48 H10        -2.4776    1.2221   -0.6039 H         1 <0>         0.0823
     49 H11        -2.2464    1.2016   -2.3852 H         1 <0>         0.0855
     50 H12        -2.7054   -1.0928   -1.4012 H         1 <0>         0.0846
     51 H13        -1.1348   -0.9859   -2.2662 H         1 <0>         0.0703
     52 H14        -1.3980    0.3476    1.4814 H         1 <0>         0.0809
     53 H15        -2.8375   -0.5243    0.8537 H         1 <0>         0.0762
     54 H16        -0.6619   -1.5115    2.7658 H         1 <0>         0.0817
     55 H17        -2.4071   -1.9362    2.7371 H         1 <0>         0.0778
     56 H18        -0.3213   -3.1905   -1.9922 H         1 <0>         0.1155
     57 H19        -0.3118   -5.5853   -1.4305 H         1 <0>         0.1232
     58 H20        -0.8759   -6.3157    0.8533 H         1 <0>         0.1246
     59 H21        -1.4460   -4.6490    2.5706 H         1 <0>         0.1208
     60 H22         0.9366   -0.7706    0.8570 H         1 <0>         0.0815
     61 H23         1.0059   -0.7963   -0.9377 H         1 <0>         0.0682
     62 H24         1.3229    1.5183   -0.1736 H         1 <0>         0.0956
     63 H25        -0.1647    1.4295    0.8292 H         1 <0>         0.0767
     64 H26         2.1840    5.5675   -5.5181 H         1 <0>         0.4637
     65 H27         3.0926    2.6675   -5.7049 H         1 <0>         0.0837
     66 H28         2.3708    2.0639   -7.2350 H         1 <0>         0.0962
     67 H29         2.9893    4.1934   -8.3668 H         1 <0>         0.0889
     68 H30         3.7112    4.7969   -6.8368 H         1 <0>         0.0836
     69 H31         5.3088    2.8875   -6.8373 H         1 <0>         0.0875
     70 H32         4.5869    2.2840   -8.3674 H         1 <0>         0.0889
     71 H33         5.3336    5.0981   -8.7754 H         1 <0>         0.4598
     72 H34         8.3027    2.1004   -8.9936 H         1 <0>         0.4685
     73 H35         8.7168    4.1501   -9.9975 H         1 <0>         0.4627
     74 H36         7.3873    5.5119   -9.9076 H         1 <0>         0.4624
     75 H37         6.6595    1.7692   -8.0879 H         1 <0>         0.4666
@<TRIPOS>BOND
     1    1    6 ar
     2    1    2 ar
     3    1   41 1
     4    2    3 ar
     5    2   42 1
     6    3    4 ar
     7    3   43 1
     8    4    5 ar
     9    4    7 1
    10    5    6 ar
    11    5   44 1
    12    6   45 1
    13    7    8 1
    14    7   46 1
    15    7   47 1
    16    8    9 1
    17    8   10 1
    18    8   26 1
    19   10   11 2
    20   10   12 am
    21   12   25 1
    22   12   13 1
    23   13   14 1
    24   13   48 1
    25   13   49 1
    26   14   15 1
    27   14   50 1
    28   14   51 1
    29   15   19 1
    30   15   16 1
    31   15   24 1
    32   16   17 1
    33   16   52 1
    34   16   53 1
    35   17   18 1
    36   17   54 1
    37   17   55 1
    38   18   23 ar
    39   18   19 ar
    40   19   20 ar
    41   20   21 ar
    42   20   56 1
    43   21   22 ar
    44   21   57 1
    45   22   23 ar
    46   22   58 1
    47   23   59 1
    48   24   25 1
    49   24   60 1
    50   24   61 1
    51   25   62 1
    52   25   63 1
    53   26   32 am
    54   26   27 am
    55   27   28 2
    56   27   29 1
    57   29   30 1
    58   29   31 1
    59   29   34 1
    60   31   32 am
    61   31   64 1
    62   32   33 2
    63   34   35 1
    64   34   65 1
    65   34   66 1
    66   35   36 1
    67   35   67 1
    68   35   68 1
    69   36   37 1
    70   36   69 1
    71   36   70 1
    72   37   38 1
    73   37   71 1
    74   38   39 2
    75   38   40 1
    76   39   72 1
    77   39   75 1
    78   40   73 1
    79   40   74 1
