@<TRIPOS>MOLECULE
ZINC39001057
   59    63     0     0     0
SMALL
USER_CHARGES

@<TRIPOS>ATOM
      1 C1         -0.5323   -0.7350   -1.3464 C.ar      1 <0>        -0.1152
      2 C2          0.3455    0.3168   -1.5377 C.ar      1 <0>        -0.1172
      3 C3          1.6806    0.1713   -1.2197 C.ar      1 <0>        -0.1049
      4 C4          2.1438   -1.0382   -0.7049 C.ar      1 <0>        -0.0497
      5 C5          1.2548   -2.0945   -0.5142 C.ar      1 <0>        -0.1083
      6 C6         -0.0781   -1.9377   -0.8358 C.ar      1 <0>        -0.1149
      7 C7          3.5774   -1.2008   -0.3617 C.ar      1 <0>        -0.0728
      8 C8          4.5617   -0.8435   -1.2802 C.ar      1 <0>        -0.0892
      9 C9          5.8945   -0.9966   -0.9563 C.ar      1 <0>        -0.1307
     10 C10         6.2584   -1.5048    0.2787 C.ar      1 <0>        -0.0991
     11 C11         5.2914   -1.8631    1.1978 C.ar      1 <0>        -0.1191
     12 C12         3.9478   -1.7085    0.8886 C.ar      1 <0>         0.1574
     13 N1          2.9682   -2.0645    1.8193 N.am      1 <0>        -0.6648
     14 C13         3.1661   -3.1181    2.6362 C.2       1 <0>         0.5306
     15 O1          4.2264   -3.7067    2.6208 O.2       1 <0>        -0.5029
     16 C14         2.0698   -3.5648    3.5688 C.3       1 <0>        -0.1198
     17 S1          2.6381   -4.9951    4.5289 S.3       1 <0>        -0.0916
     18 C15         1.2226   -5.4038    5.5871 C.3       1 <0>         0.2213
     19 H1          1.4458   -6.2696    6.2106 H         1 <0>         0.1005
     20 N2          0.0055   -5.6444    4.7685 N.3       1 <0>        -0.4986
     21 N3         -1.1092   -5.3752    5.6808 N.3       1 <0>        -0.5205
     22 C16        -0.5938   -4.4767    6.7336 C.3       1 <0>         0.2578
     23 H2         -0.6873   -4.9528    7.7097 H         1 <0>         0.1098
     24 N4          0.8369   -4.2371    6.4245 N.3       1 <0>        -0.3461
     25 N5          1.6343   -4.1812    7.6391 N.3       1 <0>        -0.6939
     26 C17        -1.3651   -3.1554    6.7191 C.3       1 <0>        -0.0508
     27 H3         -0.9122   -2.4394    7.4049 H         1 <0>         0.1578
     28 C18        -2.8250   -3.3830    7.0688 C.2       1 <0>        -0.1397
     29 C19        -3.4875   -2.9754    5.9690 C.2       1 <0>         0.0080
     30 N6         -2.6141   -2.5403    5.0233 N.2       1 <0>        -0.1570
     31 N7         -1.4247   -2.6032    5.3557 N.2       1 <0>        -0.1280
     32 C20        -4.9627   -2.9988    5.8122 C.ar      1 <0>        -0.0443
     33 C21        -5.7686   -3.4618    6.8507 C.ar      1 <0>        -0.0709
     34 C22        -7.1400   -3.4814    6.7007 C.ar      1 <0>        -0.1531
     35 C23        -7.7161   -3.0420    5.5197 C.ar      1 <0>         0.1120
     36 C24        -6.9187   -2.5813    4.4846 C.ar      1 <0>        -0.1537
     37 C25        -5.5468   -2.5524    4.6282 C.ar      1 <0>        -0.0566
     38 F1         -9.0594   -3.0633    5.3770 F         1 <0>        -0.1348
     39 H4         -1.5771   -0.6153   -1.5924 H         1 <0>         0.1232
     40 H5         -0.0145    1.2534   -1.9370 H         1 <0>         0.1246
     41 H6          2.3651    0.9931   -1.3698 H         1 <0>         0.1244
     42 H7          1.6083   -3.0341   -0.1160 H         1 <0>         0.1203
     43 H8         -0.7679   -2.7556   -0.6885 H         1 <0>         0.1245
     44 H9          4.2821   -0.4472   -2.2452 H         1 <0>         0.1277
     45 H10         6.6566   -0.7191   -1.6694 H         1 <0>         0.1262
     46 H11         7.3034   -1.6220    0.5247 H         1 <0>         0.1273
     47 H12         5.5817   -2.2597    2.1595 H         1 <0>         0.1416
     48 H13         2.1459   -1.5534    1.8775 H         1 <0>         0.4139
     49 H14         1.8151   -2.7501    4.2467 H         1 <0>         0.1202
     50 H15         1.1901   -3.8430    2.9885 H         1 <0>         0.1224
     51 H16        -0.0229   -6.5958    4.4338 H         1 <0>         0.3689
     52 H17        -1.8831   -4.9517    5.1910 H         1 <0>         0.3574
     53 H18         2.6165   -4.0990    7.4233 H         1 <0>         0.3693
     54 H19         1.3309   -3.4267    8.2364 H         1 <0>         0.3591
     55 H20        -3.2363   -3.7792    7.9854 H         1 <0>         0.1780
     56 H21        -5.3203   -3.8052    7.7713 H         1 <0>         0.1349
     57 H22        -7.7653   -3.8400    7.5050 H         1 <0>         0.1419
     58 H23        -7.3719   -2.2401    3.5656 H         1 <0>         0.1423
     59 H24        -4.9262   -2.1889    3.8225 H         1 <0>         0.1449
@<TRIPOS>BOND
     1    1    6 ar
     2    1    2 ar
     3    1   39 1
     4    2    3 ar
     5    2   40 1
     6    3    4 ar
     7    3   41 1
     8    4    5 ar
     9    4    7 1
    10    5    6 ar
    11    5   42 1
    12    6   43 1
    13    7   12 ar
    14    7    8 ar
    15    8    9 ar
    16    8   44 1
    17    9   10 ar
    18    9   45 1
    19   10   11 ar
    20   10   46 1
    21   11   12 ar
    22   11   47 1
    23   12   13 1
    24   13   14 am
    25   13   48 1
    26   14   15 2
    27   14   16 1
    28   16   17 1
    29   16   49 1
    30   16   50 1
    31   17   18 1
    32   18   19 1
    33   18   24 1
    34   18   20 1
    35   20   21 1
    36   20   51 1
    37   21   22 1
    38   21   52 1
    39   22   23 1
    40   22   24 1
    41   22   26 1
    42   24   25 1
    43   25   53 1
    44   25   54 1
    45   26   27 1
    46   26   31 1
    47   26   28 1
    48   28   29 2
    49   28   55 1
    50   29   30 1
    51   29   32 1
    52   30   31 2
    53   32   37 ar
    54   32   33 ar
    55   33   34 ar
    56   33   56 1
    57   34   35 ar
    58   34   57 1
    59   35   36 ar
    60   35   38 1
    61   36   37 ar
    62   36   58 1
    63   37   59 1
