@<TRIPOS>MOLECULE
ZINC35543855
   63    67     0     0     0
SMALL
USER_CHARGES

@<TRIPOS>ATOM
      1 C1         -0.0187    1.5258    0.0104 C.3       1 <0>        -0.1564
      2 C2          0.0021   -0.0041    0.0020 C.3       1 <0>         0.1886
      3 H1          0.5123   -0.3556   -0.8948 H         1 <0>         0.0962
      4 C3         -1.4117   -0.5257    0.0127 C.ar      1 <0>        -0.0946
      5 C4         -2.1228   -0.5709    1.1973 C.ar      1 <0>        -0.1151
      6 C5         -3.4197   -1.0494    1.2071 C.ar      1 <0>        -0.1143
      7 C6         -4.0056   -1.4822    0.0323 C.ar      1 <0>        -0.1171
      8 C7         -3.2949   -1.4361   -1.1525 C.ar      1 <0>        -0.1143
      9 C8         -1.9995   -0.9536   -1.1630 C.ar      1 <0>        -0.1075
     10 N1          0.7106   -0.4894    1.1889 N.am      1 <0>        -0.7225
     11 C9          2.0538   -0.5998    1.1737 C.2       1 <0>         0.5213
     12 O1          2.6758   -0.2974    0.1774 O.2       1 <0>        -0.5141
     13 C10         2.7826   -1.0990    2.3946 C.3       1 <0>        -0.1238
     14 H2          2.4375   -2.1043    2.6362 H         1 <0>         0.1217
     15 C11         2.4969   -0.1680    3.5719 C.3       1 <0>        -0.0605
     16 C12         3.0558    1.1956    3.2565 C.ar      1 <0>        -0.1679
     17 C13         2.4607    2.3194    3.7999 C.ar      1 <0>         0.0009
     18 C14         2.9594    3.5754    3.5083 C.ar      1 <0>        -0.1106
     19 C15         4.0526    3.7102    2.6720 C.ar      1 <0>        -0.0053
     20 C16         4.6518    2.5909    2.1306 C.ar      1 <0>        -0.1992
     21 C17         4.1553    1.3246    2.4279 C.ar      1 <0>         0.2791
     22 N2          4.8042    0.2034    1.8823 N.pl3     1 <0>        -0.5758
     23 C18         4.2875   -1.1327    2.1101 C.3       1 <0>         0.1692
     24 H3          4.7888   -1.5477    2.9845 H         1 <0>         0.0709
     25 C19         4.5334   -2.0790    0.9464 C.3       1 <0>         0.1369
     26 N3          5.7658   -1.7978    0.2375 N.pl3     1 <0>        -0.6638
     27 C20         6.2084   -0.4449   -0.0558 C.3       1 <0>         0.1411
     28 C21         6.0353    0.4613    1.1376 C.3       1 <0>         0.1000
     29 C22         6.5557   -2.8638   -0.1779 C.ar      1 <0>         0.2113
     30 C23         6.3632   -3.4280   -1.4322 C.ar      1 <0>        -0.1218
     31 C24         7.1485   -4.4863   -1.8424 C.ar      1 <0>        -0.0818
     32 C25         8.1324   -4.9941   -1.0093 C.ar      1 <0>        -0.1216
     33 C26         8.3383   -4.4475    0.2387 C.ar      1 <0>        -0.0657
     34 C27         7.5557   -3.3717    0.6661 C.ar      1 <0>        -0.0442
     35 C28         7.7686   -2.7948    1.9593 C.1       1 <0>         0.2574
     36 N4          7.9375   -2.3371    2.9852 N.1       1 <0>        -0.4141
     37 N5          2.3221    4.7773    4.0913 N.pl3     1 <0>         0.0468
     38 O2          1.3662    4.6603    4.8221 O.2       1 <0>        -0.1757
     39 O3          2.7576    5.8760    3.8368 O.3       1 <0>        -0.1740
     40 H4          1.0039    1.9031    0.0027 H         1 <0>         0.0628
     41 H5         -0.5459    1.8868   -0.8726 H         1 <0>         0.0679
     42 H6         -0.5289    1.8773    0.9072 H         1 <0>         0.0585
     43 H7         -1.6650   -0.2328    2.1152 H         1 <0>         0.1190
     44 H8         -3.9750   -1.0854    2.1327 H         1 <0>         0.1249
     45 H9         -5.0186   -1.8567    0.0401 H         1 <0>         0.1241
     46 H10        -3.7525   -1.7745   -2.0703 H         1 <0>         0.1252
     47 H11        -1.4455   -0.9141   -2.0892 H         1 <0>         0.1239
     48 H12         0.2131   -0.7312    1.9857 H         1 <0>         0.3987
     49 H13         1.4205   -0.0950    3.7274 H         1 <0>         0.0897
     50 H14         2.9727   -0.5591    4.4712 H         1 <0>         0.0955
     51 H15         1.6060    2.2159    4.4520 H         1 <0>         0.1502
     52 H16         4.4378    4.6927    2.4420 H         1 <0>         0.1509
     53 H17         5.5050    2.6972    1.4771 H         1 <0>         0.1494
     54 H18         4.5727   -3.0998    1.3267 H         1 <0>         0.0712
     55 H19         3.7007   -1.9993    0.2476 H         1 <0>         0.0761
     56 H20         7.2615   -0.4673   -0.3362 H         1 <0>         0.0806
     57 H21         5.6269   -0.0526   -0.8901 H         1 <0>         0.0610
     58 H22         6.0257    1.4948    0.7914 H         1 <0>         0.0944
     59 H23         6.8849    0.3262    1.8070 H         1 <0>         0.0611
     60 H24         5.5979   -3.0385   -2.0872 H         1 <0>         0.1341
     61 H25         6.9948   -4.9216   -2.8188 H         1 <0>         0.1325
     62 H26         8.7410   -5.8229   -1.3398 H         1 <0>         0.1350
     63 H27         9.1066   -4.8472    0.8840 H         1 <0>         0.1333
@<TRIPOS>BOND
     1    1    2 1
     2    1   40 1
     3    1   41 1
     4    1   42 1
     5    2    3 1
     6    2    4 1
     7    2   10 1
     8    4    9 ar
     9    4    5 ar
    10    5    6 ar
    11    5   43 1
    12    6    7 ar
    13    6   44 1
    14    7    8 ar
    15    7   45 1
    16    8    9 ar
    17    8   46 1
    18    9   47 1
    19   10   11 am
    20   10   48 1
    21   11   12 2
    22   11   13 1
    23   13   14 1
    24   13   23 1
    25   13   15 1
    26   15   16 1
    27   15   49 1
    28   15   50 1
    29   16   21 ar
    30   16   17 ar
    31   17   18 ar
    32   17   51 1
    33   18   19 ar
    34   18   37 1
    35   19   20 ar
    36   19   52 1
    37   20   21 ar
    38   20   53 1
    39   21   22 1
    40   22   28 1
    41   22   23 1
    42   23   24 1
    43   23   25 1
    44   25   26 1
    45   25   54 1
    46   25   55 1
    47   26   27 1
    48   26   29 1
    49   27   28 1
    50   27   56 1
    51   27   57 1
    52   28   58 1
    53   28   59 1
    54   29   34 ar
    55   29   30 ar
    56   30   31 ar
    57   30   60 1
    58   31   32 ar
    59   31   61 1
    60   32   33 ar
    61   32   62 1
    62   33   34 ar
    63   33   63 1
    64   34   35 1
    65   35   36 3
    66   37   38 2
    67   37   39 1
