@<TRIPOS>MOLECULE
ZINC36073972
   37    38     0     0     0
SMALL
USER_CHARGES

@<TRIPOS>ATOM
      1 C1         -0.0169    1.3930    0.0097 C.ar      1 <0>        -0.0147
      2 C2          1.1684    2.0962    0.0022 C.ar      1 <0>        -0.1486
      3 C3          2.3804    1.4182   -0.0135 C.ar      1 <0>         0.1956
      4 C4          2.4041    0.0292   -0.0212 C.ar      1 <0>        -0.0843
      5 C5          1.2241   -0.6821   -0.0133 C.ar      1 <0>        -0.0147
      6 C6          0.0021   -0.0041    0.0020 C.ar      1 <0>        -0.0601
      7 C7         -1.2632   -0.7607    0.0105 C.2       1 <0>         0.1064
      8 N1         -2.3969   -0.1291    0.0252 N.2       1 <0>        -0.2190
      9 N2         -3.5993   -0.8481    0.0333 N.am      1 <0>        -0.5817
     10 C8         -4.7766   -0.1923    0.0485 C.2       1 <0>         0.5322
     11 O1         -4.7951    1.0207    0.0552 O.2       1 <0>        -0.4950
     12 C9         -6.0699   -0.9657    0.0572 C.3       1 <0>        -0.1299
     13 C10        -7.2479    0.0105    0.0741 C.3       1 <0>        -0.0342
     14 C11        -8.5412   -0.7629    0.0828 C.2       1 <0>         0.0792
     15 C12        -9.8274   -0.0601    0.0933 C.2       1 <0>         0.5246
     16 O2         -9.8649    1.1564    0.0946 O.2       1 <0>        -0.4665
     17 N3        -10.9693   -0.7786    0.1009 N.am      1 <0>        -0.6559
     18 H1        -11.8270   -0.3257    0.1079 H         1 <0>         0.4381
     19 C13       -10.9188   -2.1239    0.0985 C.2       1 <0>         0.6819
     20 O3        -11.9538   -2.7620    0.1051 O.2       1 <0>        -0.5298
     21 N4         -9.7408   -2.7728    0.0884 N.am      1 <0>        -0.5408
     22 H2         -9.7287   -3.7427    0.0862 H         1 <0>         0.4579
     23 N5         -8.5320   -2.0669    0.0757 N.2       1 <0>        -0.1755
     24 N6          3.6989   -0.6877   -0.0384 N.pl3     1 <0>         0.0362
     25 O4          3.7206   -1.8965   -0.0451 O.2       1 <0>        -0.1662
     26 O5          4.7349   -0.0645   -0.0457 O.3       1 <0>        -0.1342
     27 O6          3.5463    2.1154   -0.0218 O.3       1 <0>        -0.4723
     28 H3         -0.9589    1.9210    0.0260 H         1 <0>         0.1596
     29 H4          1.1548    3.1761    0.0081 H         1 <0>         0.1598
     30 H5          1.2435   -1.7619   -0.0193 H         1 <0>         0.1635
     31 H6         -1.2466   -1.8405    0.0046 H         1 <0>         0.1318
     32 H7         -3.5844   -1.8180    0.0279 H         1 <0>         0.3924
     33 H8         -6.1269   -1.5884   -0.8357 H         1 <0>         0.1111
     34 H9         -6.1092   -1.5979    0.9442 H         1 <0>         0.1111
     35 H10        -7.1909    0.6332    0.9669 H         1 <0>         0.1161
     36 H11        -7.2086    0.6428   -0.8129 H         1 <0>         0.1160
     37 H12         3.8927    2.3128    0.8591 H         1 <0>         0.4098
@<TRIPOS>BOND
     1    1    6 ar
     2    1    2 ar
     3    1   28 1
     4    2    3 ar
     5    2   29 1
     6    3    4 ar
     7    3   27 1
     8    4    5 ar
     9    4   24 1
    10    5    6 ar
    11    5   30 1
    12    6    7 1
    13    7    8 2
    14    7   31 1
    15    8    9 1
    16    9   10 am
    17    9   32 1
    18   10   11 2
    19   10   12 1
    20   12   13 1
    21   12   33 1
    22   12   34 1
    23   13   14 1
    24   13   35 1
    25   13   36 1
    26   14   23 2
    27   14   15 1
    28   15   16 2
    29   15   17 am
    30   17   18 1
    31   17   19 am
    32   19   20 2
    33   19   21 am
    34   21   22 1
    35   21   23 1
    36   24   25 2
    37   24   26 1
    38   27   37 1
