@<TRIPOS>MOLECULE
ZINC34689631
   44    47     0     0     0
SMALL
USER_CHARGES

@<TRIPOS>ATOM
      1 C1         -0.0184    1.5028    0.0103 C.3       1 <0>        -0.1160
      2 C2          0.0021   -0.0041    0.0020 C.ar      1 <0>        -0.0879
      3 C3          0.0057   -0.6888   -1.1991 C.ar      1 <0>        -0.1130
      4 C4          0.0245   -2.0707   -1.2067 C.ar      1 <0>        -0.1186
      5 C5          0.0400   -2.7685   -0.0132 C.ar      1 <0>        -0.0823
      6 C6          0.0373   -2.0840    1.1875 C.ar      1 <0>        -0.0918
      7 C7          0.0229   -0.7015    1.1951 C.ar      1 <0>        -0.1171
      8 C8          0.0538   -2.8445    2.4885 C.3       1 <0>         0.2034
      9 H1         -0.3016   -2.2011    3.2934 H         1 <0>         0.0695
     10 C9          1.4606   -3.3044    2.7898 C.2       1 <0>         0.0776
     11 C10         1.7490   -4.5452    3.2444 C.2       1 <0>        -0.1536
     12 C11         3.1833   -4.6159    3.4123 C.ar      1 <0>        -0.0971
     13 C12         4.0415   -5.6314    3.8457 C.ar      1 <0>        -0.0663
     14 C13         5.3826   -5.3396    3.8789 C.ar      1 <0>        -0.1484
     15 C14         5.8761   -4.1007    3.5040 C.ar      1 <0>        -0.0983
     16 C15         5.0505   -3.0773    3.0722 C.ar      1 <0>        -0.1308
     17 C16         3.6839   -3.3448    3.0271 C.ar      1 <0>         0.1022
     18 N1          2.6140   -2.5800    2.6587 N.pl3     1 <0>        -0.5733
     19 H2          2.6642   -1.6617    2.3502 H         1 <0>         0.4155
     20 C17         0.7027   -5.5998    3.5034 C.3       1 <0>        -0.0272
     21 C18        -0.6669   -4.9085    3.5490 C.3       1 <0>         0.1028
     22 H3         -0.7445   -4.3157    4.4604 H         1 <0>         0.0823
     23 N2         -0.8150   -4.0277    2.3808 N.3       1 <0>        -0.6587
     24 C19        -1.7560   -5.9499    3.5328 C.2       1 <0>         0.4610
     25 O1         -2.3353   -6.2022    2.5029 O.2       1 <0>        -0.4833
     26 O2         -2.0825   -6.5972    4.6625 O.3       1 <0>        -0.3521
     27 C20        -3.1241   -7.5715    4.5740 C.3       1 <0>         0.0330
     28 H4          1.0042    1.8801    0.0026 H         1 <0>         0.0703
     29 H5         -0.5455    1.8639   -0.8728 H         1 <0>         0.0677
     30 H6         -0.5286    1.8543    0.9071 H         1 <0>         0.0662
     31 H7         -0.0064   -0.1437   -2.1314 H         1 <0>         0.1221
     32 H8          0.0266   -2.6056   -2.1449 H         1 <0>         0.1241
     33 H9          0.0540   -3.8484   -0.0191 H         1 <0>         0.1340
     34 H10         0.0246   -0.1666    2.1333 H         1 <0>         0.1201
     35 H11         3.6667   -6.6003    4.1410 H         1 <0>         0.1293
     36 H12         6.0750   -6.1002    4.2083 H         1 <0>         0.1188
     37 H13         6.9411   -3.9274    3.5505 H         1 <0>         0.1213
     38 H14         5.4473   -2.1153    2.7834 H         1 <0>         0.1271
     39 H15         0.7165   -6.3373    2.7009 H         1 <0>         0.0857
     40 H16         0.9006   -6.0886    4.4573 H         1 <0>         0.0894
     41 H17        -1.7781   -3.7581    2.2472 H         1 <0>         0.3631
     42 H18        -3.2879   -8.0184    5.5546 H         1 <0>         0.1046
     43 H19        -4.0425   -7.0919    4.2353 H         1 <0>         0.0614
     44 H20        -2.8365   -8.3474    3.8645 H         1 <0>         0.0630
@<TRIPOS>BOND
     1    1    2 1
     2    1   28 1
     3    1   29 1
     4    1   30 1
     5    2    7 ar
     6    2    3 ar
     7    3    4 ar
     8    3   31 1
     9    4    5 ar
    10    4   32 1
    11    5    6 ar
    12    5   33 1
    13    6    7 ar
    14    6    8 1
    15    7   34 1
    16    8    9 1
    17    8   23 1
    18    8   10 1
    19   10   18 1
    20   10   11 2
    21   11   12 1
    22   11   20 1
    23   12   17 ar
    24   12   13 ar
    25   13   14 ar
    26   13   35 1
    27   14   15 ar
    28   14   36 1
    29   15   16 ar
    30   15   37 1
    31   16   17 ar
    32   16   38 1
    33   17   18 1
    34   18   19 1
    35   20   21 1
    36   20   39 1
    37   20   40 1
    38   21   22 1
    39   21   23 1
    40   21   24 1
    41   23   41 1
    42   24   25 2
    43   24   26 1
    44   26   27 1
    45   27   42 1
    46   27   43 1
    47   27   44 1
