@<TRIPOS>MOLECULE
ZINC32634333
   47    50     0     0     0
SMALL
USER_CHARGES

@<TRIPOS>ATOM
      1 C1          0.0520   -1.5524   -1.5983 C.ar      1 <0>        -0.1230
      2 C2          0.3299   -0.4886   -0.7605 C.ar      1 <0>        -0.1167
      3 C3          1.6272   -0.2586   -0.3424 C.ar      1 <0>        -0.1157
      4 C4          2.6467   -1.0927   -0.7617 C.ar      1 <0>        -0.0819
      5 C5          2.3687   -2.1571   -1.5988 C.ar      1 <0>        -0.1155
      6 C6          1.0715   -2.3863   -2.0181 C.ar      1 <0>        -0.1171
      7 C7          4.0612   -0.8414   -0.3067 C.3       1 <0>        -0.0691
      8 C8          4.3206   -1.6015    0.9956 C.3       1 <0>        -0.1393
      9 C9          5.7352   -1.3502    1.4506 C.2       1 <0>         0.4913
     10 O1          6.4657   -0.6321    0.7961 O.2       1 <0>        -0.4903
     11 N1          6.1845   -1.9144    2.5688 N.2       1 <0>        -0.5569
     12 C10         7.2448   -2.7133    2.5299 C.2       1 <0>         0.4638
     13 N2          7.9066   -3.1802    1.4253 N.pl3     1 <0>        -0.5737
     14 C11         8.7795   -4.3177    1.5656 C.3       1 <0>         0.1253
     15 H1          9.7727   -3.9372    1.3271 H         1 <0>         0.1157
     16 C12         8.5288   -5.4205    0.5381 C.3       1 <0>        -0.6029
     17 S1          7.9192   -6.8237    1.5541 S.o2      1 <0>         2.3756
     18 O2          8.8632   -7.8837    1.4885 O.2       1 <0>        -0.9177
     19 O3          6.5612   -7.0772    1.2211 O.2       1 <0>        -0.9126
     20 C13         7.9913   -6.0657    3.2247 C.3       1 <0>        -0.5828
     21 C14         8.8981   -4.8484    3.0038 C.3       1 <0>        -0.0625
     22 H2          9.9289   -5.0401    3.3018 H         1 <0>         0.1788
     23 S2          8.1394   -3.4189    3.9070 S.3       1 <0>        -0.0096
     24 C15         7.7373   -2.5626    0.1807 C.ar      1 <0>         0.1392
     25 C16         6.7141   -2.9711   -0.6660 C.ar      1 <0>        -0.0483
     26 C17         6.5500   -2.3589   -1.8945 C.ar      1 <0>        -0.0958
     27 C18         7.4025   -1.3412   -2.2811 C.ar      1 <0>        -0.0741
     28 C19         8.4218   -0.9320   -1.4411 C.ar      1 <0>        -0.0875
     29 C20         8.5884   -1.5357   -0.2088 C.ar      1 <0>         0.0237
     30 Cl1         9.8637   -1.0160    0.8482 Cl        1 <0>        -0.0395
     31 Cl2         5.6436   -4.2491   -0.1820 Cl        1 <0>        -0.0317
     32 H3         -0.9623   -1.7348   -1.9214 H         1 <0>         0.1213
     33 H4         -0.4666    0.1631   -0.4329 H         1 <0>         0.1220
     34 H5          1.8444    0.5730    0.3116 H         1 <0>         0.1210
     35 H6          3.1652   -2.8086   -1.9267 H         1 <0>         0.1178
     36 H7          0.8544   -3.2176   -2.6724 H         1 <0>         0.1218
     37 H8          4.7559   -1.1856   -1.0729 H         1 <0>         0.0791
     38 H9          4.2047    0.2260   -0.1391 H         1 <0>         0.0788
     39 H10         3.6259   -1.2574    1.7617 H         1 <0>         0.1002
     40 H11         4.1771   -2.6690    0.8280 H         1 <0>         0.1008
     41 H12         7.7709   -5.1097   -0.1810 H         1 <0>         0.1547
     42 H13         9.4547   -5.6888    0.0295 H         1 <0>         0.1657
     43 H14         6.9992   -5.7522    3.5495 H         1 <0>         0.1588
     44 H15         8.4337   -6.7560    3.9430 H         1 <0>         0.1674
     45 H16         5.7551   -2.6762   -2.5533 H         1 <0>         0.1466
     46 H17         7.2721   -0.8649   -3.2416 H         1 <0>         0.1483
     47 H18         9.0858   -0.1368   -1.7463 H         1 <0>         0.1461
@<TRIPOS>BOND
     1    1    6 ar
     2    1    2 ar
     3    1   32 1
     4    2    3 ar
     5    2   33 1
     6    3    4 ar
     7    3   34 1
     8    4    5 ar
     9    4    7 1
    10    5    6 ar
    11    5   35 1
    12    6   36 1
    13    7    8 1
    14    7   37 1
    15    7   38 1
    16    8    9 1
    17    8   39 1
    18    8   40 1
    19    9   10 2
    20    9   11 1
    21   11   12 2
    22   12   23 1
    23   12   13 1
    24   13   14 1
    25   13   24 1
    26   14   15 1
    27   14   21 1
    28   14   16 1
    29   16   17 1
    30   16   41 1
    31   16   42 1
    32   17   18 2
    33   17   19 2
    34   17   20 1
    35   20   21 1
    36   20   43 1
    37   20   44 1
    38   21   22 1
    39   21   23 1
    40   24   29 ar
    41   24   25 ar
    42   25   26 ar
    43   25   31 1
    44   26   27 ar
    45   26   45 1
    46   27   28 ar
    47   27   46 1
    48   28   29 ar
    49   28   47 1
    50   29   30 1
