@<TRIPOS>MOLECULE
ZINC09905842
   40    41     0     0     0
SMALL
USER_CHARGES
N-[(2,3-dibromo-6-hydroxy-5-methoxy-phenyl)methyleneamino]-2-(2-nitrophenoxy)-acetamide
@<TRIPOS>ATOM
      1 C1         -8.6558   11.4006    0.1041 C.3       1 <0>         0.0189
      2 O1         -7.2992   10.9515    0.0957 O.3       1 <0>        -0.2969
      3 C2         -7.0939    9.6070    0.0874 C.ar      1 <0>         0.1224
      4 C3         -8.1763    8.7409    0.0869 C.ar      1 <0>        -0.1517
      5 C4         -7.9757    7.3709    0.0790 C.ar      1 <0>        -0.0442
      6 C5         -6.6951    6.8548    0.0652 C.ar      1 <0>        -0.0791
      7 C6         -5.5947    7.7172    0.0705 C.ar      1 <0>        -0.0094
      8 C7         -5.7995    9.1023    0.0790 C.ar      1 <0>         0.1223
      9 O2         -4.7367    9.9495    0.0786 O.3       1 <0>        -0.4734
     10 C8         -4.2259    7.1712    0.0611 C.2       1 <0>         0.0884
     11 N1         -4.0397    5.8866    0.0532 N.2       1 <0>        -0.1764
     12 N2         -2.7384    5.3675    0.0442 N.am      1 <0>        -0.5844
     13 C9         -2.5450    4.0337    0.0361 C.2       1 <0>         0.5289
     14 O3         -3.4977    3.2826    0.0365 O.2       1 <0>        -0.4513
     15 C10        -1.1453    3.4753    0.0264 C.3       1 <0>         0.0404
     16 O4         -1.2021    2.0475    0.0189 O.3       1 <0>        -0.2552
     17 C11        -0.0167    1.3829    0.0096 C.ar      1 <0>         0.1945
     18 C12         1.1767    2.0906    0.0021 C.ar      1 <0>        -0.2162
     19 C13         2.3801    1.4129   -0.0140 C.ar      1 <0>        -0.0255
     20 C14         2.3962    0.0301   -0.0211 C.ar      1 <0>        -0.1536
     21 C15         1.2085   -0.6774   -0.0131 C.ar      1 <0>        -0.0180
     22 C16         0.0021   -0.0041    0.0020 C.ar      1 <0>        -0.0762
     23 N3         -1.2691   -0.7621    0.0096 N.pl3     1 <0>         0.0286
     24 O5         -1.2520   -1.9799    0.0029 O.2       1 <0>        -0.1789
     25 O6         -2.3323   -0.1680    0.0225 O.3       1 <0>        -0.1205
     26 Br1        -6.4297    4.9826    0.0465 Br        1 <0>         0.0506
     27 Br2        -9.4619    6.2018    0.0797 Br        1 <0>        -0.0091
     28 H1         -8.6777   12.4904    0.1102 H         1 <0>         0.1090
     29 H2         -9.1661   11.0319   -0.7857 H         1 <0>         0.0613
     30 H3         -9.1583   11.0221    0.9942 H         1 <0>         0.0618
     31 H4         -9.1812    9.1367    0.0931 H         1 <0>         0.1540
     32 H5         -4.4333   10.1994   -0.8049 H         1 <0>         0.3956
     33 H6         -3.3778    7.8398    0.0607 H         1 <0>         0.1377
     34 H7         -1.9767    5.9680    0.0439 H         1 <0>         0.3841
     35 H8         -0.6132    3.8131    0.9157 H         1 <0>         0.1048
     36 H9         -0.6217    3.8228   -0.8642 H         1 <0>         0.1047
     37 H10         1.1647    3.1706    0.0076 H         1 <0>         0.1516
     38 H11         3.3093    1.9633   -0.0206 H         1 <0>         0.1480
     39 H12         3.3382   -0.4980   -0.0333 H         1 <0>         0.1508
     40 H13         1.2236   -1.7572   -0.0191 H         1 <0>         0.1616
@<TRIPOS>BOND
     1    1    2 1
     2    1   28 1
     3    1   29 1
     4    1   30 1
     5    2    3 1
     6    3    8 ar
     7    3    4 ar
     8    4    5 ar
     9    4   31 1
    10    5    6 ar
    11    5   27 1
    12    6    7 ar
    13    6   26 1
    14    7    8 ar
    15    7   10 1
    16    8    9 1
    17    9   32 1
    18   10   11 2
    19   10   33 1
    20   11   12 1
    21   12   13 am
    22   12   34 1
    23   13   14 2
    24   13   15 1
    25   15   16 1
    26   15   35 1
    27   15   36 1
    28   16   17 1
    29   17   22 ar
    30   17   18 ar
    31   18   19 ar
    32   18   37 1
    33   19   20 ar
    34   19   38 1
    35   20   21 ar
    36   20   39 1
    37   21   22 ar
    38   21   40 1
    39   22   23 1
    40   23   24 2
    41   23   25 1
