@<TRIPOS>MOLECULE
ZINC12316449
   59    62     0     0     0
SMALL
USER_CHARGES
2-[5-(azepan-1-ylmethyl)tetrazol-1-yl]-N-methyl-N-(4,5,6,7-tetrahydro-1H-indazol-3-ylmethyl)acetamide
@<TRIPOS>ATOM
      1 C1         -1.5881   -0.2215    5.5209 C.3       1 <0>         0.0642
      2 N1         -2.9262    0.3324    5.2994 N.am      1 <0>        -0.5933
      3 C2         -3.0845    1.7440    4.9411 C.3       1 <0>         0.1959
      4 C3         -2.9925    1.8959    3.4446 C.2       1 <0>         0.0537
      5 C4         -4.0672    1.9448    2.5598 C.2       1 <0>        -0.2186
      6 C5         -3.5705    2.0857    1.3043 C.2       1 <0>         0.0891
      7 N2         -2.2308    2.1264    1.3938 N.pl3     1 <0>        -0.4656
      8 H1         -1.5922    2.2258    0.6307 H         1 <0>         0.4475
      9 N3         -1.8872    2.0046    2.7486 N.2       1 <0>        -0.2805
     10 C6         -4.4220    2.1750    0.0627 C.3       1 <0>        -0.0614
     11 C7         -5.8302    1.6728    0.4048 C.3       1 <0>        -0.1098
     12 C8         -6.3287    2.3728    1.6719 C.3       1 <0>        -0.1255
     13 C9         -5.5380    1.8632    2.8832 C.3       1 <0>        -0.0340
     14 C10        -4.0115   -0.4568    5.4252 C.2       1 <0>         0.4977
     15 O1         -5.1192    0.0018    5.2418 O.2       1 <0>        -0.4978
     16 C11        -3.8487   -1.9089    5.7937 C.3       1 <0>         0.0797
     17 N4         -5.1664   -2.5449    5.8669 N.pl3     1 <0>        -0.2732
     18 C12        -5.7741   -3.2401    4.8877 C.2       1 <0>         0.1090
     19 N5         -6.9292   -3.6331    5.3665 N.2       1 <0>        -0.2543
     20 N6         -7.0259   -3.2017    6.5766 N.2       1 <0>        -0.0440
     21 N7         -5.9600   -2.5485    6.8842 N.2       1 <0>        -0.0338
     22 C13        -5.2314   -3.5142    3.5088 C.3       1 <0>         0.0951
     23 C14        -3.3695   -4.8402    4.3343 C.3       1 <0>        -0.0069
     24 C15        -2.5284   -6.0718    4.1362 C.3       1 <0>        -0.1405
     25 C16        -1.4516   -5.7638    3.0747 C.3       1 <0>        -0.1313
     26 C17        -1.9855   -5.8127    1.7181 C.3       1 <0>        -0.1342
     27 C18        -3.1039   -4.7734    1.4942 C.3       1 <0>        -0.1401
     28 C19        -4.3748   -5.3014    2.1020 C.3       1 <0>         0.0019
     29 H2         -1.3382   -0.1552    6.5798 H         1 <0>         0.0753
     30 H3         -1.5708   -1.2656    5.2081 H         1 <0>         0.0638
     31 H4         -0.8600    0.3441    4.9395 H         1 <0>         0.0935
     32 H5         -2.2967    2.3297    5.4149 H         1 <0>         0.1037
     33 H6         -4.0567    2.0989    5.2832 H         1 <0>         0.1118
     34 H7         -3.9917    1.5541   -0.7231 H         1 <0>         0.0807
     35 H8         -4.4732    3.2105   -0.2737 H         1 <0>         0.0895
     36 H9         -5.8012    0.5961    0.5721 H         1 <0>         0.0616
     37 H10        -6.5054    1.8939   -0.4219 H         1 <0>         0.0759
     38 H11        -6.1869    3.4489    1.5722 H         1 <0>         0.0669
     39 H12        -7.3879    2.1576    1.8129 H         1 <0>         0.0698
     40 H13        -5.7576    2.4834    3.7523 H         1 <0>         0.0703
     41 H14        -5.8114    0.8287    3.0912 H         1 <0>         0.0682
     42 H15        -3.2448   -2.4102    5.0372 H         1 <0>         0.1300
     43 H16        -3.3543   -1.9848    6.7621 H         1 <0>         0.1579
     44 H17        -6.0483   -3.4997    2.7873 H         1 <0>         0.1724
     45 H18        -4.5015   -2.7483    3.2467 H         1 <0>         0.1505
     46 H19        -2.7696   -3.9625    4.0939 H         1 <0>         0.1259
     47 H20        -3.6681   -4.7832    5.3811 H         1 <0>         0.1148
     48 H21        -3.1570   -6.8932    3.7925 H         1 <0>         0.0919
     49 H22        -2.0486   -6.3428    5.0767 H         1 <0>         0.1138
     50 H23        -0.6470   -6.4937    3.1648 H         1 <0>         0.0888
     51 H24        -1.0481   -4.7684    3.2604 H         1 <0>         0.0719
     52 H25        -2.3860   -6.8091    1.5313 H         1 <0>         0.0775
     53 H26        -1.1765   -5.6192    1.0137 H         1 <0>         0.0868
     54 H27        -3.2475   -4.6144    0.4255 H         1 <0>         0.1150
     55 H28        -2.8334   -3.8315    1.9715 H         1 <0>         0.0815
     56 H29        -4.3392   -6.3908    2.1000 H         1 <0>         0.1343
     57 H30        -5.2165   -4.9766    1.4902 H         1 <0>         0.1332
     58 N8         -4.6289   -4.8567    3.5147 N.4       1 <0>        -0.4062
     59 H31        -5.2882   -5.5141    3.9475 H         1 <0>         0.4399
@<TRIPOS>BOND
     1    1    2 1
     2    1   29 1
     3    1   30 1
     4    1   31 1
     5    2    3 1
     6    2   14 am
     7    3    4 1
     8    3   32 1
     9    3   33 1
    10    4    9 2
    11    4    5 1
    12    5   13 1
    13    5    6 2
    14    6    7 1
    15    6   10 1
    16    7    8 1
    17    7    9 1
    18   10   11 1
    19   10   34 1
    20   10   35 1
    21   11   12 1
    22   11   36 1
    23   11   37 1
    24   12   13 1
    25   12   38 1
    26   12   39 1
    27   13   40 1
    28   13   41 1
    29   14   15 2
    30   14   16 1
    31   16   17 1
    32   16   42 1
    33   16   43 1
    34   17   21 1
    35   17   18 1
    36   18   19 2
    37   18   22 1
    38   19   20 1
    39   20   21 2
    40   22   44 1
    41   22   45 1
    42   22   58 1
    43   23   24 1
    44   23   46 1
    45   23   47 1
    46   23   58 1
    47   24   25 1
    48   24   48 1
    49   24   49 1
    50   25   26 1
    51   25   50 1
    52   25   51 1
    53   26   27 1
    54   26   52 1
    55   26   53 1
    56   27   28 1
    57   27   54 1
    58   27   55 1
    59   28   56 1
    60   28   57 1
    61   28   58 1
    62   58   59 1
