@<TRIPOS>MOLECULE
ZINC09204297
   42    43     0     0     0
SMALL
USER_CHARGES
2-(4-bromophenyl)-N-[(4-isopropoxyphenyl)methyleneamino]acetamide
@<TRIPOS>ATOM
      1 C1         -3.2541    1.7373  -11.1542 C.3       1 <0>        -0.1824
      2 C2         -2.6452    3.0145  -10.5720 C.3       1 <0>         0.0755
      3 C3         -2.9070    4.1838  -11.5232 C.3       1 <0>        -0.1506
      4 O1         -3.2409    3.2905   -9.3027 O.3       1 <0>        -0.3079
      5 C4         -2.7069    2.6646   -8.2217 C.ar      1 <0>         0.1525
      6 C5         -1.7051    1.7181   -8.3944 C.ar      1 <0>        -0.2173
      7 C6         -1.1605    1.0807   -7.3008 C.ar      1 <0>        -0.0462
      8 C7         -1.6177    1.3878   -6.0165 C.ar      1 <0>        -0.1006
      9 C8         -2.6294    2.3368   -5.8479 C.ar      1 <0>        -0.0357
     10 C9         -3.1647    2.9727   -6.9470 C.ar      1 <0>        -0.1590
     11 C10        -1.0386    0.7082   -4.8434 C.2       1 <0>         0.1193
     12 N1         -1.4646    0.9949   -3.6515 N.2       1 <0>        -0.2356
     13 N2         -0.9143    0.3491   -2.5367 N.am      1 <0>        -0.5869
     14 C11        -1.3567    0.6468   -1.2989 C.2       1 <0>         0.5300
     15 O2         -2.2314    1.4741   -1.1501 O.2       1 <0>        -0.4899
     16 C12        -0.7647   -0.0479   -0.0997 C.3       1 <0>        -0.0970
     17 C13        -1.4281    0.4612    1.1540 C.ar      1 <0>        -0.0571
     18 C14        -0.9007    1.5510    1.8212 C.ar      1 <0>        -0.0972
     19 C15        -1.5116    2.0211    2.9685 C.ar      1 <0>        -0.0886
     20 C16        -2.6449    1.3946    3.4548 C.ar      1 <0>        -0.0871
     21 C17        -3.1693    0.3009    2.7897 C.ar      1 <0>        -0.0886
     22 C18        -2.5607   -0.1653    1.6396 C.ar      1 <0>        -0.0971
     23 Br1        -3.4774    2.0333    5.0279 Br        1 <0>        -0.0493
     24 H1         -2.7998    1.5268  -12.1223 H         1 <0>         0.0737
     25 H2         -3.0676    0.9042  -10.4764 H         1 <0>         0.0637
     26 H3         -4.3287    1.8710  -11.2785 H         1 <0>         0.0689
     27 H4         -1.5706    2.8808  -10.4476 H         1 <0>         0.0755
     28 H5         -2.4732    5.0937  -11.1085 H         1 <0>         0.0660
     29 H6         -2.4526    3.9733  -12.4914 H         1 <0>         0.0785
     30 H7         -3.9816    4.3176  -11.6475 H         1 <0>         0.0683
     31 H8         -1.3527    1.4811   -9.3874 H         1 <0>         0.1350
     32 H9         -0.3819    0.3446   -7.4361 H         1 <0>         0.1312
     33 H10        -2.9889    2.5741   -4.8575 H         1 <0>         0.1417
     34 H11        -3.9441    3.7090   -6.8174 H         1 <0>         0.1354
     35 H12        -0.2598   -0.0283   -4.9759 H         1 <0>         0.1195
     36 H13        -0.2148   -0.3124   -2.6556 H         1 <0>         0.3861
     37 H14        -0.9264   -1.1224   -0.1858 H         1 <0>         0.1113
     38 H15         0.3051    0.1560   -0.0531 H         1 <0>         0.1113
     39 H16        -0.0135    2.0376    1.4438 H         1 <0>         0.1309
     40 H17        -1.1020    2.8753    3.4872 H         1 <0>         0.1346
     41 H18        -4.0543   -0.1884    3.1688 H         1 <0>         0.1346
     42 H19        -2.9703   -1.0190    1.1201 H         1 <0>         0.1308
@<TRIPOS>BOND
     1    1    2 1
     2    1   24 1
     3    1   25 1
     4    1   26 1
     5    2    3 1
     6    2    4 1
     7    2   27 1
     8    3   28 1
     9    3   29 1
    10    3   30 1
    11    4    5 1
    12    5   10 ar
    13    5    6 ar
    14    6    7 ar
    15    6   31 1
    16    7    8 ar
    17    7   32 1
    18    8    9 ar
    19    8   11 1
    20    9   10 ar
    21    9   33 1
    22   10   34 1
    23   11   12 2
    24   11   35 1
    25   12   13 1
    26   13   14 am
    27   13   36 1
    28   14   15 2
    29   14   16 1
    30   16   17 1
    31   16   37 1
    32   16   38 1
    33   17   22 ar
    34   17   18 ar
    35   18   19 ar
    36   18   39 1
    37   19   20 ar
    38   19   40 1
    39   20   21 ar
    40   20   23 1
    41   21   22 ar
    42   21   41 1
    43   22   42 1
