@<TRIPOS>MOLECULE
ZINC15936765
   20    21     0     0     0
SMALL
USER_CHARGES
4-(4-chloropyrazol-1-yl)-5-methyl-thiazol-2-amine
@<TRIPOS>ATOM
      1 C1          0.2256    6.4734    1.1378 C.3       1 <0>        -0.0502
      2 C2         -1.1124    6.1193    0.5415 C.2       1 <0>        -0.2002
      3 C3         -1.5528    4.9338    0.0416 C.2       1 <0>         0.3259
      4 N1         -2.7881    4.8717   -0.4270 N.2       1 <0>        -0.5980
      5 C4         -3.5756    5.9300   -0.4176 C.2       1 <0>         0.3739
      6 S1         -2.5566    7.1419    0.2948 S.3       1 <0>         0.0782
      7 N2         -4.8828    6.0451   -0.8627 N.pl3     1 <0>        -0.7920
      8 N3         -0.7194    3.8031    0.0286 N.pl3     1 <0>        -0.2951
      9 C5         -1.1274    2.5137    0.0204 C.2       1 <0>         0.0984
     10 C6         -0.0215    1.7317    0.0116 C.2       1 <0>        -0.1865
     11 C7          1.0985    2.5702    0.0054 C.2       1 <0>         0.0747
     12 N4          0.6814    3.8115    0.0155 N.2       1 <0>        -0.2659
     13 Cl1         0.0021   -0.0041    0.0020 Cl        1 <0>        -0.0332
     14 H1          0.8931    6.8233    0.3503 H         1 <0>         0.0807
     15 H2          0.0956    7.2606    1.8803 H         1 <0>         0.0719
     16 H3          0.6558    5.5923    1.6139 H         1 <0>         0.0868
     17 H4         -5.3349    5.2761   -1.2437 H         1 <0>         0.4190
     18 H5         -5.3458    6.8946   -0.7933 H         1 <0>         0.4249
     19 H6         -2.1510    2.1694    0.0225 H         1 <0>         0.1855
     20 H7          2.1296    2.2490   -0.0062 H         1 <0>         0.2013
@<TRIPOS>BOND
     1    1    2 1
     2    1   14 1
     3    1   15 1
     4    1   16 1
     5    2    6 1
     6    2    3 2
     7    3    4 1
     8    3    8 1
     9    4    5 2
    10    5    6 1
    11    5    7 1
    12    7   17 1
    13    7   18 1
    14    8   12 1
    15    8    9 1
    16    9   10 2
    17    9   19 1
    18   10   11 1
    19   10   13 1
    20   11   12 2
    21   11   20 1
