@<TRIPOS>MOLECULE
ZINC15419079
   61    61     0     0     0
SMALL
USER_CHARGES
N-(6-amino-1-butyl-2,4-dioxo-pyrimidin-5-yl)-N-ethyl-2-[methyl-(2-oxo-2-propylamino-ethyl)amino]acetamide
@<TRIPOS>ATOM
      1 C1          0.3069   -6.3224    4.3576 C.3       1 <0>        -0.1546
      2 C2          1.3988   -5.9566    3.3502 C.3       1 <0>        -0.1211
      3 C3          0.7759   -5.2009    2.1748 C.3       1 <0>        -0.1402
      4 C4          1.8678   -4.8351    1.1674 C.3       1 <0>         0.0998
      5 N1          1.2713   -4.1115    0.0419 N.am      1 <0>        -0.5353
      6 C5          1.1721   -2.7402    0.0862 C.2       1 <0>         0.5178
      7 C6          0.6078   -2.0708   -0.9803 C.2       1 <0>        -0.1788
      8 C7          0.1449   -2.8152   -2.0815 C.2       1 <0>         0.5742
      9 O1         -0.3622   -2.2493   -3.0353 O.2       1 <0>        -0.5216
     10 N2          0.2706   -4.1567   -2.0771 N.am      1 <0>        -0.6610
     11 H1         -0.0508   -4.6859   -2.8624 H         1 <0>         0.4457
     12 C8          0.8234   -4.7921   -1.0286 C.2       1 <0>         0.7097
     13 O2          0.9205   -6.0041   -1.0488 O.2       1 <0>        -0.5154
     14 N3          0.4915   -0.6647   -0.9646 N.am      1 <0>        -0.4862
     15 C9          1.2067    0.1406   -1.9577 C.3       1 <0>         0.0923
     16 C10         2.6134    0.4531   -1.4434 C.3       1 <0>        -0.1760
     17 C11        -0.2786   -0.0618   -0.0350 C.2       1 <0>         0.4860
     18 O3         -0.9363   -0.7306    0.7345 O.2       1 <0>        -0.5116
     19 C12        -0.3217    1.4424    0.0475 C.3       1 <0>        -0.0279
     20 C13        -2.6134    1.4744    0.8283 C.3       1 <0>        -0.0587
     21 C14        -1.1142    3.2877    1.4000 C.3       1 <0>        -0.0282
     22 C15        -1.8609    3.6227    2.6654 C.2       1 <0>         0.4975
     23 O4         -2.4298    2.7478    3.2834 O.2       1 <0>        -0.5226
     24 N4         -1.8965    4.8944    3.1103 N.am      1 <0>        -0.7030
     25 C16        -2.6224    5.2200    4.3404 C.3       1 <0>         0.1119
     26 C17        -2.5065    6.7199    4.6192 C.3       1 <0>        -0.1375
     27 C18        -3.2646    7.0600    5.9039 C.3       1 <0>        -0.1544
     28 N5          1.6302   -2.0450    1.1797 N.pl3     1 <0>        -0.8233
     29 H2         -0.1703   -5.4129    4.7224 H         1 <0>         0.0535
     30 H3         -0.4376   -6.9542    3.8730 H         1 <0>         0.0577
     31 H4          0.7507   -6.8609    5.1950 H         1 <0>         0.0616
     32 H5          1.8761   -6.8662    2.9854 H         1 <0>         0.0721
     33 H6          2.1433   -5.3249    3.8347 H         1 <0>         0.0654
     34 H7          0.2986   -4.2914    2.5396 H         1 <0>         0.0671
     35 H8          0.0314   -5.8326    1.6902 H         1 <0>         0.0796
     36 H9          2.3450   -5.7446    0.8026 H         1 <0>         0.1185
     37 H10         2.6123   -4.2034    1.6519 H         1 <0>         0.0943
     38 H11         1.2769   -0.4144   -2.8932 H         1 <0>         0.1059
     39 H12         0.6666    1.0720   -2.1274 H         1 <0>         0.0854
     40 H13         3.1456    1.0523   -2.1822 H         1 <0>         0.0845
     41 H14         2.5432    1.0081   -0.5079 H         1 <0>         0.0518
     42 H15         3.1535   -0.4783   -1.2737 H         1 <0>         0.0675
     43 H16         0.6796    1.8241    0.2471 H         1 <0>         0.1600
     44 H17        -0.6835    1.8478   -0.8974 H         1 <0>         0.1671
     45 H18        -2.6799    0.3936    0.7033 H         1 <0>         0.1391
     46 H19        -3.2612    1.7860    1.6477 H         1 <0>         0.1376
     47 H20        -2.9288    1.9666   -0.0916 H         1 <0>         0.1200
     48 H21        -0.0640    3.5556    1.5161 H         1 <0>         0.1598
     49 H22        -1.5416    3.8462    0.5672 H         1 <0>         0.1646
     50 H23        -1.4415    5.5940    2.6160 H         1 <0>         0.4111
     51 H24        -3.6726    4.9521    4.2243 H         1 <0>         0.0803
     52 H25        -2.1949    4.6615    5.1732 H         1 <0>         0.0801
     53 H26        -1.4563    6.9878    4.7353 H         1 <0>         0.0728
     54 H27        -2.9339    7.2783    3.7864 H         1 <0>         0.0731
     55 H28        -3.1820    8.1285    6.1025 H         1 <0>         0.0677
     56 H29        -4.3148    6.7921    5.7878 H         1 <0>         0.0612
     57 H30        -2.8371    6.5015    6.7367 H         1 <0>         0.0609
     58 H31         1.6594   -1.0757    1.1608 H         1 <0>         0.4151
     59 H32         1.9242   -2.5237    1.9705 H         1 <0>         0.4148
     60 N6         -1.2176    1.8336    1.1561 N.4       1 <0>        -0.3686
     61 H33        -0.9350    1.3319    2.0062 H         1 <0>         0.4410
@<TRIPOS>BOND
     1    1    2 1
     2    1   29 1
     3    1   30 1
     4    1   31 1
     5    2    3 1
     6    2   32 1
     7    2   33 1
     8    3    4 1
     9    3   34 1
    10    3   35 1
    11    4    5 1
    12    4   36 1
    13    4   37 1
    14    5   12 am
    15    5    6 1
    16    6    7 2
    17    6   28 1
    18    7    8 1
    19    7   14 1
    20    8    9 2
    21    8   10 am
    22   10   11 1
    23   10   12 am
    24   12   13 2
    25   14   15 1
    26   14   17 am
    27   15   16 1
    28   15   38 1
    29   15   39 1
    30   16   40 1
    31   16   41 1
    32   16   42 1
    33   17   18 2
    34   17   19 1
    35   19   43 1
    36   19   44 1
    37   19   60 1
    38   20   45 1
    39   20   46 1
    40   20   47 1
    41   20   60 1
    42   21   22 1
    43   21   48 1
    44   21   49 1
    45   21   60 1
    46   22   23 2
    47   22   24 am
    48   24   25 1
    49   24   50 1
    50   25   26 1
    51   25   51 1
    52   25   52 1
    53   26   27 1
    54   26   53 1
    55   26   54 1
    56   27   55 1
    57   27   56 1
    58   27   57 1
    59   28   58 1
    60   28   59 1
    61   60   61 1
