@<TRIPOS>MOLECULE
ZINC07813737
   38    40     0     0     0
SMALL
USER_CHARGES
5-ethyl-N-(3-methylthiazol-2-ylidene)-4,5,6,7-tetrahydrobenzothiophene-2-carboxamide
@<TRIPOS>ATOM
      1 C1          3.4381    4.6672    1.6921 C.3       1 <0>        -0.1561
      2 C2          1.9694    4.2431    1.7565 C.3       1 <0>        -0.1197
      3 C3          1.8767    2.7167    1.7071 C.3       1 <0>        -0.0882
      4 H1          2.3938    2.3526    0.8193 H         1 <0>         0.0733
      5 C4          0.4049    2.2984    1.6457 C.3       1 <0>        -0.1102
      6 C5          0.3312    0.7983    1.3262 C.3       1 <0>        -0.0444
      7 C6          1.2802    0.0754    2.2316 C.2       1 <0>        -0.1632
      8 C7          2.2807    0.6224    2.9812 C.2       1 <0>        -0.1433
      9 C8          3.0350   -0.2525    3.7491 C.2       1 <0>        -0.0674
     10 C9          2.7248   -1.5967    3.7006 C.2       1 <0>        -0.2462
     11 S1          1.3541   -1.6142    2.5577 S.3       1 <0>         0.1768
     12 C10         3.3589   -2.7209    4.4060 C.2       1 <0>         0.5892
     13 O1          4.2982   -2.5176    5.1582 O.2       1 <0>        -0.5072
     14 N1          2.9058   -3.9667    4.2229 N.2       1 <0>        -0.5855
     15 C11         3.7171   -4.9058    3.7429 C.2       1 <0>         0.3919
     16 N2          4.9894   -4.7769    3.2654 N.pl3     1 <0>        -0.5348
     17 C12         5.6399   -5.8856    2.8237 C.2       1 <0>         0.0628
     18 C13         5.0052   -7.0615    2.8632 C.2       1 <0>        -0.2328
     19 S2          3.4254   -6.6060    3.5570 S.3       1 <0>         0.1373
     20 C14         5.6440   -3.4667    3.2334 C.3       1 <0>         0.0580
     21 C15         2.5343    2.1274    2.9554 C.3       1 <0>        -0.0521
     22 H2          3.9763    4.2429    2.5397 H         1 <0>         0.0560
     23 H3          3.8801    4.3062    0.7634 H         1 <0>         0.0536
     24 H4          3.5041    5.7546    1.7273 H         1 <0>         0.0545
     25 H5          1.4312    4.6674    0.9089 H         1 <0>         0.0646
     26 H6          1.5274    4.6041    2.6852 H         1 <0>         0.0636
     27 H7         -0.1035    2.8639    0.8648 H         1 <0>         0.0759
     28 H8         -0.0702    2.4910    2.6076 H         1 <0>         0.0696
     29 H9         -0.6833    0.4368    1.4936 H         1 <0>         0.0859
     30 H10         0.6148    0.6299    0.2873 H         1 <0>         0.0873
     31 H11         3.8430    0.1083    4.3684 H         1 <0>         0.1413
     32 H12         6.6485   -5.8170    2.4436 H         1 <0>         0.1825
     33 H13         5.3573   -8.0349    2.5552 H         1 <0>         0.2106
     34 H14         6.1061   -3.2677    4.2003 H         1 <0>         0.0939
     35 H15         6.4091   -3.4617    2.4571 H         1 <0>         0.0893
     36 H16         4.9037   -2.6959    3.0189 H         1 <0>         0.0802
     37 H17         2.1042    2.5857    3.8460 H         1 <0>         0.0763
     38 H18         3.6074    2.3167    2.9292 H         1 <0>         0.0766
@<TRIPOS>BOND
     1    1    2 1
     2    1   22 1
     3    1   23 1
     4    1   24 1
     5    2    3 1
     6    2   25 1
     7    2   26 1
     8    3    4 1
     9    3   21 1
    10    3    5 1
    11    5    6 1
    12    5   27 1
    13    5   28 1
    14    6    7 1
    15    6   29 1
    16    6   30 1
    17    7   11 1
    18    7    8 2
    19    8    9 1
    20    8   21 1
    21    9   10 2
    22    9   31 1
    23   10   11 1
    24   10   12 1
    25   12   13 2
    26   12   14 1
    27   14   15 2
    28   15   19 1
    29   15   16 1
    30   16   17 1
    31   16   20 1
    32   17   18 2
    33   17   32 1
    34   18   19 1
    35   18   33 1
    36   20   34 1
    37   20   35 1
    38   20   36 1
    39   21   37 1
    40   21   38 1
