@<TRIPOS>MOLECULE
ZINC02120717
   64    69     0     0     0
SMALL
USER_CHARGES
2-morpholinoethyl-(3-nitrophenyl)-BLAHdione
@<TRIPOS>ATOM
      1 C1          3.3781   -5.7668   -5.2379 C.ar      1 <0>        -0.1410
      2 C2          3.6286   -4.4967   -5.7310 C.ar      1 <0>        -0.0899
      3 C3          3.5741   -3.3692   -4.9301 C.ar      1 <0>        -0.1273
      4 C4          3.2528   -3.5635   -3.5882 C.ar      1 <0>         0.1079
      5 C5          2.9985   -4.8664   -3.0884 C.ar      1 <0>        -0.0999
      6 C6          3.0602   -5.9883   -3.9207 C.ar      1 <0>        -0.0674
      7 C7          2.7042   -4.7044   -1.6790 C.2       1 <0>        -0.1549
      8 C8          2.7871   -3.3823   -1.4086 C.2       1 <0>         0.0539
      9 N1          3.1151   -2.6940   -2.5447 N.pl3     1 <0>        -0.5708
     10 H1          3.2324   -1.7328   -2.5999 H         1 <0>         0.4200
     11 C9          2.5425   -2.7966   -0.0363 C.3       1 <0>         0.2537
     12 H2          3.3516   -2.1145    0.2249 H         1 <0>         0.1371
     13 N2          2.5019   -3.9195    0.9246 N.am      1 <0>        -0.5891
     14 C10         1.7254   -5.1034    0.5587 C.3       1 <0>         0.1232
     15 H3          0.7163   -4.7928    0.2876 H         1 <0>         0.1268
     16 C11         2.3679   -5.7690   -0.6664 C.3       1 <0>        -0.0436
     17 C12         1.6429   -6.0889    1.6796 C.2       1 <0>         0.5295
     18 O1          0.9456   -7.0689    1.5237 O.2       1 <0>        -0.5127
     19 N3          2.2865   -5.9596    2.8381 N.am      1 <0>        -0.6001
     20 C13         3.1499   -4.8362    3.1622 C.3       1 <0>         0.1015
     21 C14         3.1705   -3.8120    2.0746 C.2       1 <0>         0.5150
     22 O2          3.8396   -2.8156    2.2487 O.2       1 <0>        -0.5105
     23 C15         2.1142   -7.0103    3.8443 C.3       1 <0>         0.0822
     24 C16         0.9244   -6.6660    4.7425 C.3       1 <0>        -0.0248
     25 C17         0.3528   -8.9885    5.1253 C.3       1 <0>        -0.0429
     26 C18         0.2423  -10.0706    6.2027 C.3       1 <0>         0.0356
     27 O3         -0.6861   -9.6458    7.2043 O.3       1 <0>        -0.3556
     28 C19        -0.3283   -8.4134    7.8354 C.3       1 <0>         0.0352
     29 C20        -0.2236   -7.3146    6.7745 C.3       1 <0>        -0.0377
     30 C21         1.2274   -2.0610   -0.0203 C.ar      1 <0>        -0.1086
     31 C22         0.0758   -2.6943   -0.4495 C.ar      1 <0>        -0.0558
     32 C23        -1.1304   -2.0196   -0.4348 C.ar      1 <0>        -0.1119
     33 C24        -1.1864   -0.7134    0.0148 C.ar      1 <0>        -0.0424
     34 C25        -0.0343   -0.0785    0.4389 C.ar      1 <0>        -0.0390
     35 C26         1.1724   -0.7533    0.4238 C.ar      1 <0>        -0.0343
     36 N4         -0.0932    1.3218    0.9150 N.pl3     1 <0>         0.0222
     37 O4          0.9212    1.8796    1.2934 O.2       1 <0>        -0.1491
     38 O5         -1.1554    1.9179    0.9236 O.3       1 <0>        -0.1475
     39 H4          3.4351   -6.6095   -5.9109 H         1 <0>         0.1233
     40 H5          3.8753   -4.3824   -6.7762 H         1 <0>         0.1268
     41 H6          3.7710   -2.3843   -5.3270 H         1 <0>         0.1322
     42 H7          2.8672   -6.9823   -3.5451 H         1 <0>         0.1307
     43 H8          3.2784   -6.2870   -0.3650 H         1 <0>         0.0844
     44 H9          1.6683   -6.4812   -1.1039 H         1 <0>         0.1049
     45 H10         4.1636   -5.2032    3.3224 H         1 <0>         0.1237
     46 H11         2.7929   -4.3703    4.0807 H         1 <0>         0.1182
     47 H12         1.9305   -7.9629    3.3472 H         1 <0>         0.1170
     48 H13         3.0172   -7.0849    4.4502 H         1 <0>         0.1091
     49 H14         1.1081   -5.7135    5.2396 H         1 <0>         0.1338
     50 H15         0.0213   -6.5915    4.1367 H         1 <0>         0.1373
     51 H16        -0.6121   -8.8644    4.6337 H         1 <0>         0.1430
     52 H17         1.1016   -9.2825    4.3897 H         1 <0>         0.1423
     53 H18         1.2195  -10.2325    6.6576 H         1 <0>         0.0821
     54 H19        -0.1083  -10.9989    5.7517 H         1 <0>         0.1431
     55 H20         0.6323   -8.5271    8.3377 H         1 <0>         0.0822
     56 H21        -1.0910   -8.1428    8.5656 H         1 <0>         0.1427
     57 H22         0.1045   -6.3866    7.2428 H         1 <0>         0.1416
     58 H23        -1.1975   -7.1630    6.3091 H         1 <0>         0.1408
     59 H24         0.1187   -3.7161   -0.7965 H         1 <0>         0.1440
     60 H25        -2.0299   -2.5142   -0.7704 H         1 <0>         0.1547
     61 H26        -2.1297   -0.1877    0.0308 H         1 <0>         0.1603
     62 H27         2.0719   -0.2587    0.7594 H         1 <0>         0.1591
     63 N5          0.7749   -7.7247    5.7644 N.4       1 <0>        -0.3919
     64 H28         1.6791   -7.8706    6.2284 H         1 <0>         0.4272
@<TRIPOS>BOND
     1    1    6 ar
     2    1    2 ar
     3    1   39 1
     4    2    3 ar
     5    2   40 1
     6    3    4 ar
     7    3   41 1
     8    4    9 1
     9    4    5 ar
    10    5    6 ar
    11    5    7 1
    12    6   42 1
    13    7   16 1
    14    7    8 2
    15    8    9 1
    16    8   11 1
    17    9   10 1
    18   11   12 1
    19   11   13 1
    20   11   30 1
    21   13   21 am
    22   13   14 1
    23   14   15 1
    24   14   16 1
    25   14   17 1
    26   16   43 1
    27   16   44 1
    28   17   18 2
    29   17   19 am
    30   19   20 1
    31   19   23 1
    32   20   21 1
    33   20   45 1
    34   20   46 1
    35   21   22 2
    36   23   24 1
    37   23   47 1
    38   23   48 1
    39   24   49 1
    40   24   50 1
    41   24   63 1
    42   25   26 1
    43   25   51 1
    44   25   52 1
    45   25   63 1
    46   26   27 1
    47   26   53 1
    48   26   54 1
    49   27   28 1
    50   28   29 1
    51   28   55 1
    52   28   56 1
    53   29   57 1
    54   29   58 1
    55   29   63 1
    56   30   35 ar
    57   30   31 ar
    58   31   32 ar
    59   31   59 1
    60   32   33 ar
    61   32   60 1
    62   33   34 ar
    63   33   61 1
    64   34   35 ar
    65   34   36 1
    66   35   62 1
    67   36   37 2
    68   36   38 1
    69   63   64 1
