@<TRIPOS>MOLECULE
ZINC67386040
   41    42     0     0     0
SMALL
USER_CHARGES

@<TRIPOS>ATOM
      1 C1          1.2153    1.2182   -0.2054 C.3       1 <0>        -0.1173
      2 C2          0.5928   -0.1514   -0.1161 C.ar      1 <0>        -0.0659
      3 C3          0.0049   -0.7171   -1.2328 C.ar      1 <0>        -0.1306
      4 C4         -0.5669   -1.9735   -1.1551 C.ar      1 <0>        -0.0989
      5 C5         -0.5526   -2.6679    0.0390 C.ar      1 <0>        -0.1324
      6 C6          0.0369   -2.1027    1.1619 C.ar      1 <0>         0.1460
      7 C7          0.6151   -0.8425    1.0792 C.ar      1 <0>        -0.1148
      8 C8          1.2610   -0.2277    2.2941 C.3       1 <0>        -0.1180
      9 N1          0.0527   -2.8032    2.3731 N.am      1 <0>        -0.6618
     10 C9         -0.0249   -4.1487    2.3744 C.2       1 <0>         0.5138
     11 O1         -0.0029   -4.7584    1.3262 O.2       1 <0>        -0.4860
     12 C10        -0.1388   -4.8956    3.6783 C.3       1 <0>         0.0602
     13 H1         -0.9920   -4.5166    4.2408 H         1 <0>         0.1139
     14 C11         1.1398   -4.6951    4.4944 C.3       1 <0>        -0.1767
     15 O2         -0.3225   -6.2881    3.4151 O.3       1 <0>        -0.2652
     16 C12        -1.1144   -6.9796    4.2763 C.ar      1 <0>         0.2137
     17 C13        -1.6134   -6.3585    5.4125 C.ar      1 <0>        -0.2263
     18 C14        -2.4186   -7.0621    6.2869 C.ar      1 <0>         0.0187
     19 C15        -2.7281   -8.3852    6.0319 C.ar      1 <0>        -0.1294
     20 C16        -2.2320   -9.0082    4.8991 C.ar      1 <0>         0.2177
     21 C17        -1.4296   -8.3050    4.0177 C.ar      1 <0>        -0.1892
     22 F1         -2.5352  -10.3013    4.6518 F         1 <0>        -0.0922
     23 N2         -3.5905   -9.1368    6.9712 N.pl3     1 <0>         0.0400
     24 O3         -4.0237   -8.5938    7.9606 O.2       1 <0>        -0.1551
     25 O4         -3.8616  -10.2939    6.7489 O.3       1 <0>        -0.1475
     26 H2          2.2633    1.1231   -0.4895 H         1 <0>         0.0727
     27 H3          0.6879    1.8088   -0.9544 H         1 <0>         0.0693
     28 H4          1.1449    1.7131    0.7632 H         1 <0>         0.0694
     29 H5         -0.0080   -0.1761   -2.1674 H         1 <0>         0.1247
     30 H6         -1.0256   -2.4124   -2.0288 H         1 <0>         0.1273
     31 H7         -0.9997   -3.6491    0.0991 H         1 <0>         0.1433
     32 H8          0.5186    0.3455    2.8495 H         1 <0>         0.0726
     33 H9          1.6618   -1.0164    2.9308 H         1 <0>         0.0613
     34 H10         2.0698    0.4324    1.9807 H         1 <0>         0.0767
     35 H11         0.1194   -2.3204    3.2118 H         1 <0>         0.4121
     36 H12         1.9930   -5.0742    3.9318 H         1 <0>         0.0831
     37 H13         1.2799   -3.6330    4.6951 H         1 <0>         0.0861
     38 H14         1.0574   -5.2354    5.4375 H         1 <0>         0.0834
     39 H15        -1.3718   -5.3252    5.6133 H         1 <0>         0.1602
     40 H16        -2.8066   -6.5782    7.1710 H         1 <0>         0.1693
     41 H17        -1.0458   -8.7891    3.1319 H         1 <0>         0.1716
@<TRIPOS>BOND
     1    1    2 1
     2    1   26 1
     3    1   27 1
     4    1   28 1
     5    2    7 ar
     6    2    3 ar
     7    3    4 ar
     8    3   29 1
     9    4    5 ar
    10    4   30 1
    11    5    6 ar
    12    5   31 1
    13    6    7 ar
    14    6    9 1
    15    7    8 1
    16    8   32 1
    17    8   33 1
    18    8   34 1
    19    9   10 am
    20    9   35 1
    21   10   11 2
    22   10   12 1
    23   12   13 1
    24   12   14 1
    25   12   15 1
    26   14   36 1
    27   14   37 1
    28   14   38 1
    29   15   16 1
    30   16   21 ar
    31   16   17 ar
    32   17   18 ar
    33   17   39 1
    34   18   19 ar
    35   18   40 1
    36   19   20 ar
    37   19   23 1
    38   20   21 ar
    39   20   22 1
    40   21   41 1
    41   23   24 2
    42   23   25 1
