@<TRIPOS>MOLECULE
ZINC61145719
   46    47     0     0     0
SMALL
USER_CHARGES

@<TRIPOS>ATOM
      1 C1          0.9639   -7.2770   -4.4760 C.3       1 <0>        -0.1494
      2 C2          1.2168   -6.3109   -3.3169 C.3       1 <0>         0.0703
      3 H1          2.2192   -5.8918   -3.4044 H         1 <0>         0.0615
      4 C3          0.1833   -5.1795   -3.3586 C.3       1 <0>         0.0123
      5 N1          0.3281   -4.3734   -2.1360 N.am      1 <0>        -0.6274
      6 C4          0.3460   -5.0753   -0.8428 C.3       1 <0>         0.1207
      7 H2          0.6294   -4.3807   -0.0520 H         1 <0>         0.1112
      8 C5          1.3716   -6.2118   -0.9237 C.3       1 <0>         0.0532
      9 O1          1.0989   -7.0120   -2.0766 O.3       1 <0>        -0.3686
     10 C6         -1.0408   -5.6515   -0.5500 C.3       1 <0>        -0.1589
     11 C7          0.4405   -3.0318   -2.1989 C.2       1 <0>         0.7087
     12 O2          0.8821   -2.4136   -1.2495 O.2       1 <0>        -0.5644
     13 N2          0.0635   -2.3754   -3.3140 N.am      1 <0>        -0.6285
     14 C8          0.1296   -0.9001   -3.3284 C.3       1 <0>         0.1160
     15 C9          0.6763   -0.3835   -4.6717 C.3       1 <0>        -0.1474
     16 C10         1.8026   -1.2807   -5.1352 C.3       1 <0>         0.0076
     17 N3          1.2656   -2.3091   -6.0234 N.4       1 <0>        -0.3453
     18 C11         0.8071   -3.4767   -5.3738 C.3       1 <0>        -0.0603
     19 C12        -0.3864   -3.1425   -4.4573 C.3       1 <0>         0.0507
     20 C13         2.3150   -2.6914   -6.9776 C.3       1 <0>        -0.0943
     21 C14         2.6169   -1.5271   -7.8855 C.2       1 <0>         0.4862
     22 O3          1.9385   -0.5158   -7.8259 O.co2     1 <0>        -0.6702
     23 O4          3.5395   -1.5964   -8.6795 O.co2     1 <0>        -0.6377
     24 H3         -0.0386   -7.6957   -4.3879 H         1 <0>         0.0705
     25 H4          1.0521   -6.7414   -5.4213 H         1 <0>         0.0719
     26 H5          1.6980   -8.0821   -4.4447 H         1 <0>         0.0741
     27 H6          0.3589   -4.5539   -4.2337 H         1 <0>         0.1334
     28 H7         -0.8209   -5.6010   -3.4036 H         1 <0>         0.0879
     29 H8          2.3746   -5.7922   -1.0016 H         1 <0>         0.0581
     30 H9          1.3027   -6.8288   -0.0278 H         1 <0>         0.1116
     31 H10        -1.3168   -6.3523   -1.3379 H         1 <0>         0.0643
     32 H11        -1.0236   -6.1705    0.4083 H         1 <0>         0.0742
     33 H12        -1.7699   -4.8421   -0.5119 H         1 <0>         0.0584
     34 H13        -0.8701   -0.4957   -3.1698 H         1 <0>         0.0820
     35 H14         0.7826   -0.5634   -2.5232 H         1 <0>         0.1067
     36 H15        -0.1212   -0.3882   -5.4146 H         1 <0>         0.0904
     37 H16         1.0497    0.6327   -4.5455 H         1 <0>         0.1213
     38 H17         2.5433   -0.6874   -5.6714 H         1 <0>         0.1438
     39 H18         2.2701   -1.7536   -4.2716 H         1 <0>         0.1117
     40 H19         0.4967   -4.2072   -6.1208 H         1 <0>         0.1443
     41 H20         1.6146   -3.8973   -4.7746 H         1 <0>         0.1266
     42 H21        -0.8446   -4.0699   -4.1137 H         1 <0>         0.1491
     43 H22        -1.1203   -2.5624   -5.0167 H         1 <0>         0.1038
     44 H23         3.2169   -2.9710   -6.4331 H         1 <0>         0.1228
     45 H24         1.9734   -3.5378   -7.5736 H         1 <0>         0.1255
     46 H25         0.4976   -1.9115   -6.5431 H         1 <0>         0.4216
@<TRIPOS>BOND
     1    1    2 1
     2    1   24 1
     3    1   25 1
     4    1   26 1
     5    2    3 1
     6    2    9 1
     7    2    4 1
     8    4    5 1
     9    4   27 1
    10    4   28 1
    11    5    6 1
    12    5   11 am
    13    6    7 1
    14    6    8 1
    15    6   10 1
    16    8    9 1
    17    8   29 1
    18    8   30 1
    19   10   31 1
    20   10   32 1
    21   10   33 1
    22   11   12 2
    23   11   13 am
    24   13   19 1
    25   13   14 1
    26   14   15 1
    27   14   34 1
    28   14   35 1
    29   15   16 1
    30   15   36 1
    31   15   37 1
    32   16   17 1
    33   16   38 1
    34   16   39 1
    35   17   18 1
    36   17   20 1
    37   17   46 1
    38   18   19 1
    39   18   40 1
    40   18   41 1
    41   19   42 1
    42   19   43 1
    43   20   21 1
    44   20   44 1
    45   20   45 1
    46   21   22 2
    47   21   23 1
