@<TRIPOS>MOLECULE
ZINC65500503
   47    49     0     0     0
SMALL
USER_CHARGES

@<TRIPOS>ATOM
      1 C1          0.0992    1.4891    0.0131 C.3       1 <0>        -0.1037
      2 C2          0.1633   -0.0164   -0.0028 C.2       1 <0>         0.0678
      3 C3          0.1479   -0.7976   -1.0997 C.2       1 <0>         0.0516
      4 N1          0.2240   -2.0931   -0.6643 N.pl3     1 <0>        -0.4903
      5 H1          0.2335   -2.8876   -1.2207 H         1 <0>         0.4679
      6 C4          0.2832   -2.0585    0.6844 C.cat     1 <0>         0.3119
      7 N2          0.2515   -0.8130    1.0727 N.pl3     1 <0>        -0.4711
      8 C5          0.0628   -0.3345   -2.5312 C.3       1 <0>         0.1368
      9 H2          0.6851    0.5477   -2.6818 H         1 <0>         0.1233
     10 C6         -1.4012   -0.0309   -2.9119 C.3       1 <0>        -0.1248
     11 H3         -1.6593    1.0201   -2.7820 H         1 <0>         0.1643
     12 C7         -1.5372   -0.5076   -4.3829 C.3       1 <0>        -0.1158
     13 H4         -1.8799    0.2807   -5.0533 H         1 <0>         0.1661
     14 C8         -2.5137   -1.6583   -4.2885 C.2       1 <0>         0.5365
     15 O1         -2.9037   -2.3248   -5.2230 O.2       1 <0>        -0.4421
     16 N3         -2.8803   -1.8260   -3.0126 N.am      1 <0>        -0.5656
     17 C9         -2.3173   -0.9558   -2.1426 C.2       1 <0>         0.5425
     18 O2         -2.5068   -0.9183   -0.9458 O.2       1 <0>        -0.4696
     19 C10        -3.8221   -2.8651   -2.5889 C.3       1 <0>         0.0651
     20 C11        -0.1381   -1.0393   -4.7577 C.3       1 <0>         0.1371
     21 N4          0.4769   -1.4231   -3.4527 N.3       1 <0>        -0.6424
     22 C12         0.6776    0.0516   -5.4545 C.3       1 <0>        -0.1363
     23 C13         2.0384   -0.4891   -5.8109 C.2       1 <0>         0.4625
     24 O3          2.3262   -1.6299   -5.5358 O.2       1 <0>        -0.5011
     25 O4          2.9307    0.2966   -6.4339 O.3       1 <0>        -0.3415
     26 C14         4.2008   -0.2815   -6.7416 C.3       1 <0>         0.0318
     27 C15        -0.2575   -2.2533   -5.6425 C.2       1 <0>         0.4892
     28 O5         -0.2459   -2.1285   -6.8442 O.2       1 <0>        -0.4815
     29 O6         -0.3768   -3.4733   -5.0956 O.3       1 <0>        -0.3322
     30 C16        -0.4855   -4.5792   -5.9940 C.3       1 <0>         0.0350
     31 H5          1.1092    1.8963   -0.0339 H         1 <0>         0.1034
     32 H6         -0.4735    1.8375   -0.8464 H         1 <0>         0.1028
     33 H7         -0.3846    1.8225    0.9313 H         1 <0>         0.0970
     34 H8          0.3499   -2.9188    1.3338 H         1 <0>         0.2663
     35 H9         -3.2737   -3.7749   -2.3448 H         1 <0>         0.0774
     36 H10        -4.3686   -2.5235   -1.7098 H         1 <0>         0.0916
     37 H11        -4.5247   -3.0699   -3.3966 H         1 <0>         0.0951
     38 H12         1.4819   -1.4693   -3.5293 H         1 <0>         0.3753
     39 H13         0.1627    0.3665   -6.3621 H         1 <0>         0.1459
     40 H14         0.7895    0.9048   -4.7855 H         1 <0>         0.1324
     41 H15         4.6865   -0.6028   -5.8202 H         1 <0>         0.0645
     42 H16         4.0597   -1.1411   -7.3968 H         1 <0>         0.0671
     43 H17         4.8251    0.4585   -7.2424 H         1 <0>         0.1113
     44 H18        -1.3676   -4.4521   -6.6216 H         1 <0>         0.0665
     45 H19         0.4038   -4.6256   -6.6224 H         1 <0>         0.0629
     46 H20        -0.5758   -5.5034   -5.4233 H         1 <0>         0.1038
     47 H21         0.2845   -0.5110    1.9939 H         1 <0>         0.4654
@<TRIPOS>BOND
     1    1    2 1
     2    1   31 1
     3    1   32 1
     4    1   33 1
     5    2    7 1
     6    2    3 2
     7    3    4 1
     8    3    8 1
     9    4    5 1
    10    4    6 1
    11    6    7 2
    12    6   34 1
    13    7   47 1
    14    8    9 1
    15    8   21 1
    16    8   10 1
    17   10   11 1
    18   10   17 1
    19   10   12 1
    20   12   13 1
    21   12   14 1
    22   12   20 1
    23   14   15 2
    24   14   16 am
    25   16   17 am
    26   16   19 1
    27   17   18 2
    28   19   35 1
    29   19   36 1
    30   19   37 1
    31   20   21 1
    32   20   22 1
    33   20   27 1
    34   21   38 1
    35   22   23 1
    36   22   39 1
    37   22   40 1
    38   23   24 2
    39   23   25 1
    40   25   26 1
    41   26   41 1
    42   26   42 1
    43   26   43 1
    44   27   28 2
    45   27   29 1
    46   29   30 1
    47   30   44 1
    48   30   45 1
    49   30   46 1
