@<TRIPOS>MOLECULE
ZINC32736037
   41    43     0     0     0
SMALL
USER_CHARGES
2-chloro-N-[2-[(3S)-1,1-dioxothiolan-3-yl]-5-methyl-pyrazol-3-yl]-4-nitro-benzamide
@<TRIPOS>ATOM
      1 C1          7.0324   -1.2172   -0.0729 C.3       1 <0>        -0.0783
      2 C2          6.3905    0.1462   -0.0589 C.2       1 <0>         0.0957
      3 C3          5.0170    0.4024   -0.0441 C.2       1 <0>        -0.2638
      4 C4          4.8442    1.7528   -0.0347 C.2       1 <0>         0.3092
      5 N1          6.0773    2.3218   -0.0489 N.pl3     1 <0>        -0.3857
      6 N2          7.0250    1.2903   -0.0585 N.2       1 <0>        -0.2829
      7 C5          6.3650    3.7582   -0.0505 C.3       1 <0>         0.1627
      8 H1          5.3860    4.2597   -0.0407 H         1 <0>         0.1091
      9 C6          7.1909    4.1239    1.1940 C.3       1 <0>        -0.1401
     10 C7          7.7679    5.5521    1.0434 C.3       1 <0>        -0.5820
     11 S1          7.9204    5.7360   -0.7801 S.o2      1 <0>         2.3918
     12 O1          7.0683    6.7883   -1.2115 O.2       1 <0>        -0.9260
     13 O2          9.2977    5.7633   -1.1285 O.2       1 <0>        -0.9219
     14 C8          7.2001    4.1254   -1.3104 C.3       1 <0>        -0.5996
     15 N3          3.6249    2.4279   -0.0195 N.am      1 <0>        -0.6567
     16 C9          2.4700    1.7331   -0.0122 C.2       1 <0>         0.5624
     17 O3          2.4918    0.5176   -0.0189 O.2       1 <0>        -0.4634
     18 C10         1.1777    2.4487    0.0040 C.ar      1 <0>        -0.0786
     19 C11         1.1488    3.8448    0.0113 C.ar      1 <0>        -0.0743
     20 C12        -0.0609    4.5065    0.0259 C.ar      1 <0>        -0.0557
     21 C13        -1.2457    3.7907    0.0333 C.ar      1 <0>        -0.0055
     22 C14        -1.2260    2.4081    0.0209 C.ar      1 <0>        -0.0529
     23 C15        -0.0215    1.7317    0.0116 C.ar      1 <0>         0.0117
     24 Cl1         0.0021   -0.0041    0.0020 Cl        1 <0>         0.0119
     25 N4         -2.5399    4.5087    0.0486 N.pl3     1 <0>         0.0200
     26 O4         -2.5607    5.7265    0.0545 O.2       1 <0>        -0.1386
     27 O5         -3.5842    3.8818    0.0552 O.3       1 <0>        -0.1400
     28 H2          6.2503   -1.9907   -0.0698 H         1 <0>         0.0816
     29 H3          7.6664   -1.3331    0.8185 H         1 <0>         0.0788
     30 H4          7.6490   -1.3229   -0.9777 H         1 <0>         0.0789
     31 H5          4.2318   -0.3392   -0.0404 H         1 <0>         0.1762
     32 H6          6.5476    4.0850    2.0854 H         1 <0>         0.1025
     33 H7          8.0188    3.4086    1.3078 H         1 <0>         0.1087
     34 H8          7.0706    6.2779    1.4873 H         1 <0>         0.1473
     35 H9          8.7374    5.6122    1.5595 H         1 <0>         0.1533
     36 H10         7.9516    3.3431   -1.4930 H         1 <0>         0.1610
     37 H11         6.5336    4.2041   -2.1819 H         1 <0>         0.1497
     38 H12         3.6052    3.5277   -0.0135 H         1 <0>         0.4300
     39 H13         2.0720    4.4051    0.0051 H         1 <0>         0.1572
     40 H14        -0.0841    5.5862    0.0312 H         1 <0>         0.1715
     41 H15        -2.1542    1.8559    0.0223 H         1 <0>         0.1748
@<TRIPOS>BOND
     1    1    2 1
     2    1   28 1
     3    1   29 1
     4    1   30 1
     5    2    6 2
     6    2    3 1
     7    3    4 2
     8    3   31 1
     9    4    5 1
    10    4   15 1
    11    5    6 1
    12    5    7 1
    13    7    8 1
    14    7   14 1
    15    7    9 1
    16    9   10 1
    17    9   32 1
    18    9   33 1
    19   10   11 1
    20   10   34 1
    21   10   35 1
    22   11   12 2
    23   11   13 2
    24   11   14 1
    25   14   36 1
    26   14   37 1
    27   15   16 am
    28   15   38 1
    29   16   17 2
    30   16   18 1
    31   18   23 ar
    32   18   19 ar
    33   19   20 ar
    34   19   39 1
    35   20   21 ar
    36   20   40 1
    37   21   22 ar
    38   21   25 1
    39   22   23 ar
    40   22   41 1
    41   23   24 1
    42   25   26 2
    43   25   27 1
