@<TRIPOS>MOLECULE
ZINC65260340
   42    45     0     0     0
SMALL
USER_CHARGES

@<TRIPOS>ATOM
      1 C1          1.0337    1.2821    0.4758 C.3       1 <0>         0.0280
      2 O1          0.7057   -0.0994    0.3145 O.3       1 <0>        -0.3225
      3 C2          0.9507   -0.6541   -0.9028 C.ar      1 <0>         0.0955
      4 C3          1.4999    0.1129   -1.9173 C.ar      1 <0>        -0.1716
      5 C4          1.7481   -0.4517   -3.1546 C.ar      1 <0>        -0.0925
      6 C5          1.4496   -1.7833   -3.3836 C.ar      1 <0>        -0.0451
      7 C6          0.9012   -2.5553   -2.3756 C.ar      1 <0>        -0.1084
      8 C7          0.6552   -1.9961   -1.1304 C.ar      1 <0>         0.1520
      9 N1          0.1052   -2.7780   -0.1053 N.am      1 <0>        -0.6702
     10 C8          0.0604   -4.1191   -0.2309 C.2       1 <0>         0.7172
     11 O2          0.5912   -4.6587   -1.1826 O.2       1 <0>        -0.5510
     12 N2         -0.5727   -4.8622    0.6983 N.am      1 <0>        -0.6207
     13 C9         -0.5333   -6.3341    0.6617 C.3       1 <0>         0.1269
     14 C10         0.1785   -6.8128    1.9260 C.3       1 <0>        -0.0627
     15 C11        -0.3592   -6.1108    3.1449 C.2       1 <0>        -0.2393
     16 C12        -1.0220   -4.9400    3.0888 C.2       1 <0>         0.1917
     17 N3         -1.4571   -4.3494    4.2446 N.pl3     1 <0>        -0.6054
     18 C13        -1.2392   -4.9497    5.4670 C.2       1 <0>         0.3057
     19 C14        -1.5581   -4.5908    6.7422 C.2       1 <0>        -0.2806
     20 C15        -1.0880   -5.5880    7.5982 C.2       1 <0>         0.0980
     21 N4         -0.5066   -6.5159    6.8798 N.2       1 <0>        -0.2606
     22 N5         -0.5820   -6.1447    5.5315 N.am      1 <0>        -0.3649
     23 C16        -0.1456   -6.7284    4.4021 C.2       1 <0>         0.5674
     24 O3          0.4373   -7.7966    4.4598 O.2       1 <0>        -0.4790
     25 C17        -1.3251   -4.2395    1.7927 C.3       1 <0>         0.1467
     26 Cl1         1.7638   -2.4862   -4.9396 Cl        1 <0>        -0.0613
     27 H1          2.0994    1.4256    0.2976 H         1 <0>         0.0591
     28 H2          0.4628    1.8767   -0.2373 H         1 <0>         0.0593
     29 H3          0.7892    1.5975    1.4901 H         1 <0>         0.1031
     30 H4          1.7339    1.1525   -1.7417 H         1 <0>         0.1425
     31 H5          2.1756    0.1481   -3.9444 H         1 <0>         0.1379
     32 H6          0.6687   -3.5944   -2.5567 H         1 <0>         0.1865
     33 H7         -0.2431   -2.3538    0.6945 H         1 <0>         0.4111
     34 H8         -1.5486   -6.7301    0.6371 H         1 <0>         0.0849
     35 H9          0.0151   -6.6670   -0.2194 H         1 <0>         0.1147
     36 H10         0.0292   -7.8869    2.0362 H         1 <0>         0.1017
     37 H11         1.2452   -6.6076    1.8359 H         1 <0>         0.0855
     38 H12        -2.0815   -3.6936    7.0381 H         1 <0>         0.1652
     39 H13        -1.1869   -5.5933    8.6736 H         1 <0>         0.2040
     40 H14        -1.0437   -3.1896    1.8745 H         1 <0>         0.1037
     41 H15        -2.3928   -4.3125    1.5858 H         1 <0>         0.1129
     42 H16        -1.9239   -3.5001    4.2034 H         1 <0>         0.4344
@<TRIPOS>BOND
     1    1    2 1
     2    1   27 1
     3    1   28 1
     4    1   29 1
     5    2    3 1
     6    3    8 ar
     7    3    4 ar
     8    4    5 ar
     9    4   30 1
    10    5    6 ar
    11    5   31 1
    12    6    7 ar
    13    6   26 1
    14    7    8 ar
    15    7   32 1
    16    8    9 1
    17    9   10 am
    18    9   33 1
    19   10   11 2
    20   10   12 am
    21   12   25 1
    22   12   13 1
    23   13   14 1
    24   13   34 1
    25   13   35 1
    26   14   15 1
    27   14   36 1
    28   14   37 1
    29   15   23 1
    30   15   16 2
    31   16   17 1
    32   16   25 1
    33   17   18 1
    34   17   42 1
    35   18   22 1
    36   18   19 2
    37   19   20 1
    38   19   38 1
    39   20   21 2
    40   20   39 1
    41   21   22 1
    42   22   23 am
    43   23   24 2
    44   25   40 1
    45   25   41 1
