@<TRIPOS>MOLECULE
ZINC52462630
   45    47     0     0     0
SMALL
USER_CHARGES

@<TRIPOS>ATOM
      1 C1          2.3230   -4.9126   -0.8796 C.3       1 <0>        -0.0760
      2 C2          1.3918   -3.7829   -0.5223 C.2       1 <0>         0.1101
      3 C3          0.7517   -2.8661   -1.4590 C.ar      1 <0>        -0.2030
      4 C4          0.7705   -2.7240   -2.8517 C.ar      1 <0>         0.0060
      5 C5          0.0155   -1.7065   -3.4121 C.ar      1 <0>         0.0659
      6 C6         -0.7277   -0.8696   -2.5810 C.ar      1 <0>         0.1556
      7 N1         -0.7289   -1.0236   -1.2756 N.ar      1 <0>        -0.4838
      8 C7         -0.0244   -1.9810   -0.6851 C.ar      1 <0>         0.3012
      9 N2          0.1477   -2.3529    0.6223 N.pl3     1 <0>        -0.3954
     10 N3          1.0091   -3.4529    0.6781 N.2       1 <0>        -0.2371
     11 C8         -0.4759   -1.7039    1.7783 C.3       1 <0>         0.1128
     12 N4         -0.0007   -1.5199   -4.8016 N.am      1 <0>        -0.6772
     13 C9          0.1114   -2.5808   -5.6253 C.2       1 <0>         0.7048
     14 O1          0.1293   -3.7070   -5.1672 O.2       1 <0>        -0.5722
     15 N5          0.2036   -2.3934   -6.9568 N.am      1 <0>        -0.7375
     16 C10         0.3253   -3.5465   -7.8521 C.3       1 <0>         0.1447
     17 C11         0.4124   -3.0608   -9.3003 C.3       1 <0>        -0.1166
     18 H1         -0.4455   -2.4264   -9.5230 H         1 <0>         0.0951
     19 C12         1.7021   -2.2606   -9.4932 C.3       1 <0>        -0.1470
     20 C13         0.4140   -4.2658  -10.2432 C.3       1 <0>         0.1410
     21 N6          0.3769   -3.7995  -11.6315 N.pl3     1 <0>        -0.3709
     22 C14         1.2536   -4.1287  -12.6032 C.2       1 <0>         0.0539
     23 C15         0.8720   -3.4934  -13.7354 C.2       1 <0>        -0.2740
     24 C16        -0.2772   -2.7506  -13.4457 C.2       1 <0>         0.0453
     25 N7         -0.5784   -2.9381  -12.1864 N.2       1 <0>        -0.2954
     26 H2          1.7446   -5.8213   -1.0463 H         1 <0>         0.0865
     27 H3          2.8706   -4.6588   -1.7873 H         1 <0>         0.0830
     28 H4          3.0273   -5.0748   -0.0637 H         1 <0>         0.0821
     29 H5          1.3564   -3.3874   -3.4706 H         1 <0>         0.1530
     30 H6         -1.3154   -0.0768   -3.0195 H         1 <0>         0.1682
     31 H7         -1.4334   -2.1800    1.9895 H         1 <0>         0.0707
     32 H8          0.1773   -1.8008    2.6455 H         1 <0>         0.0882
     33 H9         -0.6355   -0.6480    1.5598 H         1 <0>         0.0900
     34 H10        -0.0924   -0.6274   -5.1701 H         1 <0>         0.4098
     35 H11         0.1892   -1.4950   -7.3222 H         1 <0>         0.3997
     36 H12         1.2261   -4.1071   -7.6021 H         1 <0>         0.0740
     37 H13        -0.5468   -4.1900   -7.7365 H         1 <0>         0.0737
     38 H14         1.7642   -1.9146  -10.5250 H         1 <0>         0.0593
     39 H15         1.7010   -1.4022   -8.8215 H         1 <0>         0.0591
     40 H16         2.5601   -2.8950   -9.2706 H         1 <0>         0.0596
     41 H17         1.3180   -4.8527  -10.0811 H         1 <0>         0.1007
     42 H18        -0.4613   -4.8841  -10.0440 H         1 <0>         0.0896
     43 H19         2.1070   -4.7818  -12.4963 H         1 <0>         0.1729
     44 H20         1.3676   -3.5495  -14.6934 H         1 <0>         0.1472
     45 H21        -0.8243   -2.1328  -14.1425 H         1 <0>         0.1825
@<TRIPOS>BOND
     1    1    2 1
     2    1   26 1
     3    1   27 1
     4    1   28 1
     5    2   10 2
     6    2    3 1
     7    3    8 ar
     8    3    4 ar
     9    4    5 ar
    10    4   29 1
    11    5    6 ar
    12    5   12 1
    13    6    7 ar
    14    6   30 1
    15    7    8 ar
    16    8    9 1
    17    9   10 1
    18    9   11 1
    19   11   31 1
    20   11   32 1
    21   11   33 1
    22   12   13 am
    23   12   34 1
    24   13   14 2
    25   13   15 am
    26   15   16 1
    27   15   35 1
    28   16   17 1
    29   16   36 1
    30   16   37 1
    31   17   18 1
    32   17   19 1
    33   17   20 1
    34   19   38 1
    35   19   39 1
    36   19   40 1
    37   20   21 1
    38   20   41 1
    39   20   42 1
    40   21   25 1
    41   21   22 1
    42   22   23 2
    43   22   43 1
    44   23   24 1
    45   23   44 1
    46   24   25 2
    47   24   45 1
