@<TRIPOS>MOLECULE
ZINC20828386
   57    61     0     0     0
SMALL
USER_CHARGES

@<TRIPOS>ATOM
      1 C1         -0.4717    0.6889   -0.5764 C.ar      1 <0>        -0.1353
      2 C2          0.6590    1.4799   -0.4601 C.ar      1 <0>        -0.0561
      3 C3          1.9130    0.9077   -0.3885 C.ar      1 <0>        -0.1298
      4 C4          2.0528   -0.4752   -0.4327 C.ar      1 <0>         0.1830
      5 C5          0.9064   -1.2715   -0.5503 C.ar      1 <0>        -0.1623
      6 C6         -0.3525   -0.6857   -0.6218 C.ar      1 <0>        -0.0569
      7 C7          1.3738   -2.6772   -0.5699 C.2       1 <0>         0.0748
      8 N1          0.6419   -3.7607   -0.6679 N.2       1 <0>        -0.1159
      9 N2         -0.7555   -3.6678   -0.6317 N.am      1 <0>        -0.5721
     10 C8         -1.5060   -4.7871   -0.6511 C.2       1 <0>         0.5825
     11 O1         -0.9705   -5.8770   -0.7000 O.2       1 <0>        -0.4786
     12 C9         -2.9796   -4.6892   -0.6130 C.ar      1 <0>        -0.1895
     13 C10        -3.7709   -5.8450   -0.6267 C.ar      1 <0>        -0.0075
     14 C11        -5.1460   -5.6984   -0.5891 C.ar      1 <0>        -0.1735
     15 C12        -5.6906   -4.4274   -0.5395 C.ar      1 <0>         0.1306
     16 N3         -4.9206   -3.3562   -0.5276 N.ar      1 <0>        -0.4817
     17 C13        -3.6069   -3.4435   -0.5567 C.ar      1 <0>         0.1362
     18 C14         2.8435   -2.5919   -0.4557 C.2       1 <0>         0.5918
     19 O2          3.6161   -3.5319   -0.4340 O.2       1 <0>        -0.4636
     20 N4          3.1767   -1.2922   -0.3797 N.am      1 <0>        -0.5300
     21 C15         4.5506   -0.7985   -0.2572 C.3       1 <0>         0.2804
     22 N5          4.9451   -0.7946    1.1578 N.3       1 <0>        -0.5463
     23 C16         5.3216   -2.1425    1.6029 C.3       1 <0>         0.0508
     24 C17         5.5852   -2.1283    3.1103 C.3       1 <0>        -0.1171
     25 C18         6.7104   -1.1363    3.4174 C.3       1 <0>        -0.1220
     26 C19         6.3137    0.2494    2.9007 C.3       1 <0>        -0.1060
     27 C20         6.0290    0.1663    1.3993 C.3       1 <0>         0.1373
     28 H1          6.9278   -0.1611    0.8768 H         1 <0>         0.0587
     29 C21         5.6189    1.5241    0.8901 C.ar      1 <0>        -0.1456
     30 C22         6.4670    2.2515    0.0689 C.ar      1 <0>        -0.0696
     31 C23         6.0481    3.4960   -0.3756 C.ar      1 <0>        -0.1704
     32 C24         4.8076    3.9671    0.0118 C.ar      1 <0>         0.0998
     33 N6          4.0274    3.2478    0.7944 N.ar      1 <0>        -0.4814
     34 C25         4.3906    2.0575    1.2311 C.ar      1 <0>         0.1211
     35 H2         -1.4481    1.1477   -0.6271 H         1 <0>         0.1387
     36 H3          0.5587    2.5547   -0.4256 H         1 <0>         0.1397
     37 H4          2.7873    1.5352   -0.2984 H         1 <0>         0.1350
     38 H5         -1.2337   -1.3036   -0.7121 H         1 <0>         0.1152
     39 H6         -1.1829   -2.7980   -0.5927 H         1 <0>         0.3912
     40 H7         -3.3192   -6.8252   -0.6661 H         1 <0>         0.1535
     41 H8         -5.7878   -6.5670   -0.5986 H         1 <0>         0.1502
     42 H9         -6.7639   -4.3103   -0.5104 H         1 <0>         0.1679
     43 H10        -3.0100   -2.5436   -0.5413 H         1 <0>         0.1524
     44 H11         5.2215   -1.4477   -0.8197 H         1 <0>         0.0769
     45 H12         4.6091    0.2152   -0.6535 H         1 <0>         0.1040
     46 H13         4.5112   -2.8373    1.3824 H         1 <0>         0.0873
     47 H14         6.2237   -2.4591    1.0794 H         1 <0>         0.0420
     48 H15         4.6794   -1.8251    3.6353 H         1 <0>         0.0714
     49 H16         5.8797   -3.1254    3.4376 H         1 <0>         0.0710
     50 H17         6.8721   -1.0909    4.4944 H         1 <0>         0.0695
     51 H18         7.6266   -1.4605    2.9239 H         1 <0>         0.0617
     52 H19         5.4194    0.5900    3.4224 H         1 <0>         0.0754
     53 H20         7.1287    0.9511    3.0782 H         1 <0>         0.0717
     54 H21         7.4312    1.8581   -0.2174 H         1 <0>         0.1343
     55 H22         6.6829    4.0901   -1.0162 H         1 <0>         0.1370
     56 H23         4.4738    4.9356   -0.3301 H         1 <0>         0.1575
     57 H24         3.7223    1.4952    1.8664 H         1 <0>         0.1602
@<TRIPOS>BOND
     1    1    6 ar
     2    1    2 ar
     3    1   35 1
     4    2    3 ar
     5    2   36 1
     6    3    4 ar
     7    3   37 1
     8    4   20 1
     9    4    5 ar
    10    5    6 ar
    11    5    7 1
    12    6   38 1
    13    7    8 2
    14    7   18 1
    15    8    9 1
    16    9   10 am
    17    9   39 1
    18   10   11 2
    19   10   12 1
    20   12   17 ar
    21   12   13 ar
    22   13   14 ar
    23   13   40 1
    24   14   15 ar
    25   14   41 1
    26   15   16 ar
    27   15   42 1
    28   16   17 ar
    29   17   43 1
    30   18   19 2
    31   18   20 am
    32   20   21 1
    33   21   22 1
    34   21   44 1
    35   21   45 1
    36   22   27 1
    37   22   23 1
    38   23   24 1
    39   23   46 1
    40   23   47 1
    41   24   25 1
    42   24   48 1
    43   24   49 1
    44   25   26 1
    45   25   50 1
    46   25   51 1
    47   26   27 1
    48   26   52 1
    49   26   53 1
    50   27   28 1
    51   27   29 1
    52   29   34 ar
    53   29   30 ar
    54   30   31 ar
    55   30   54 1
    56   31   32 ar
    57   31   55 1
    58   32   33 ar
    59   32   56 1
    60   33   34 ar
    61   34   57 1
