@<TRIPOS>MOLECULE
ZINC66276979
   55    56     0     0     0
SMALL
USER_CHARGES

@<TRIPOS>ATOM
      1 C1         -0.0187    1.5258    0.0104 C.3       1 <0>        -0.1597
      2 C2          0.0021   -0.0041    0.0020 C.3       1 <0>        -0.1195
      3 C3         -1.4333   -0.5336    0.0129 C.3       1 <0>         0.1251
      4 C4         -2.1918   -0.0435   -1.2046 C.2       1 <0>         0.5414
      5 O1         -1.9329   -0.2671   -2.3676 O.2       1 <0>        -0.4568
      6 N1         -3.2144    0.6918   -0.7251 N.am      1 <0>        -0.5636
      7 C5         -3.2074    0.7339    0.6121 C.2       1 <0>         0.7112
      8 O2         -4.0310    1.3354    1.2734 O.2       1 <0>        -0.5383
      9 N2         -2.1873    0.0359    1.1430 N.am      1 <0>        -0.7115
     10 C6         -4.2101    1.3628   -1.5645 C.3       1 <0>         0.1108
     11 C7         -5.3682    0.4310   -1.8123 C.2       1 <0>         0.5069
     12 O3         -5.3625   -0.6839   -1.3347 O.2       1 <0>        -0.5023
     13 N3         -6.4104    0.8365   -2.5645 N.am      1 <0>        -0.5453
     14 N4         -7.4871   -0.0298   -2.7949 N.pl3     1 <0>        -0.4701
     15 C8         -8.5293    0.3757   -3.5472 C.2       1 <0>         0.5621
     16 S1         -9.8450   -0.6829   -3.8286 S.2       1 <0>        -0.5848
     17 N5         -8.5357    1.6146   -4.0778 N.pl3     1 <0>        -0.6778
     18 C9         -9.6685    2.0554   -4.8955 C.3       1 <0>         0.1481
     19 H1        -10.5892    1.6229   -4.5041 H         1 <0>         0.1201
     20 C10        -9.4635    1.5964   -6.3406 C.3       1 <0>        -0.1293
     21 C11       -10.6466    2.0568   -7.1946 C.3       1 <0>        -0.1151
     22 C12       -10.7422    3.5832   -7.1530 C.3       1 <0>        -0.1240
     23 C13       -10.9472    4.0422   -5.7079 C.3       1 <0>        -0.1103
     24 C14        -9.7641    3.5818   -4.8539 C.3       1 <0>        -0.0989
     25 H2         -8.8434    4.0144   -5.2454 H         1 <0>         0.0745
     26 C15        -9.9691    4.0408   -3.4089 C.3       1 <0>        -0.1509
     27 C16        -1.4409   -2.0623    0.0765 C.3       1 <0>        -0.1180
     28 C17        -2.8859   -2.5652    0.0862 C.3       1 <0>        -0.1598
     29 H3          1.0039    1.9031    0.0027 H         1 <0>         0.0704
     30 H4         -0.5459    1.8868   -0.8726 H         1 <0>         0.0500
     31 H5         -0.5289    1.8773    0.9072 H         1 <0>         0.0615
     32 H6          0.5123   -0.3556   -0.8948 H         1 <0>         0.0921
     33 H7          0.5293   -0.3651    0.8851 H         1 <0>         0.0903
     34 H8         -1.9874   -0.0718    2.0861 H         1 <0>         0.4423
     35 H9         -4.5672    2.2596   -1.0581 H         1 <0>         0.1380
     36 H10        -3.7561    1.6392   -2.5161 H         1 <0>         0.1352
     37 H11        -6.4150    1.7281   -2.9465 H         1 <0>         0.4211
     38 H12        -7.4825   -0.9214   -2.4130 H         1 <0>         0.4589
     39 H13        -7.7902    2.2144   -3.9183 H         1 <0>         0.3894
     40 H14        -8.5428    2.0289   -6.7321 H         1 <0>         0.0598
     41 H15        -9.3954    0.5089   -6.3702 H         1 <0>         0.0821
     42 H16       -10.5006    1.7298   -8.2241 H         1 <0>         0.0678
     43 H17       -11.5674    1.6242   -6.8031 H         1 <0>         0.0702
     44 H18        -9.8215    4.0157   -7.5445 H         1 <0>         0.0618
     45 H19       -11.5851    3.9112   -7.7614 H         1 <0>         0.0671
     46 H20       -11.0153    5.1296   -5.6783 H         1 <0>         0.0701
     47 H21       -11.8679    3.6096   -5.3165 H         1 <0>         0.0700
     48 H22        -9.1262    3.7128   -2.8005 H         1 <0>         0.0485
     49 H23       -10.0372    5.1283   -3.3792 H         1 <0>         0.0621
     50 H24       -10.8898    3.6083   -3.0174 H         1 <0>         0.0622
     51 H25        -0.9220   -2.4647   -0.7935 H         1 <0>         0.0904
     52 H26        -0.9358   -2.3907    0.9849 H         1 <0>         0.0885
     53 H27        -3.4048   -2.1627    0.9561 H         1 <0>         0.0590
     54 H28        -3.3909   -2.2368   -0.8222 H         1 <0>         0.0601
     55 H29        -2.8913   -3.6542    0.1315 H         1 <0>         0.0666
@<TRIPOS>BOND
     1    1    2 1
     2    1   29 1
     3    1   30 1
     4    1   31 1
     5    2    3 1
     6    2   32 1
     7    2   33 1
     8    3    9 1
     9    3    4 1
    10    3   27 1
    11    4    5 2
    12    4    6 am
    13    6    7 am
    14    6   10 1
    15    7    8 2
    16    7    9 am
    17    9   34 1
    18   10   11 1
    19   10   35 1
    20   10   36 1
    21   11   12 2
    22   11   13 am
    23   13   14 1
    24   13   37 1
    25   14   15 1
    26   14   38 1
    27   15   16 2
    28   15   17 1
    29   17   18 1
    30   17   39 1
    31   18   19 1
    32   18   24 1
    33   18   20 1
    34   20   21 1
    35   20   40 1
    36   20   41 1
    37   21   22 1
    38   21   42 1
    39   21   43 1
    40   22   23 1
    41   22   44 1
    42   22   45 1
    43   23   24 1
    44   23   46 1
    45   23   47 1
    46   24   25 1
    47   24   26 1
    48   26   48 1
    49   26   49 1
    50   26   50 1
    51   27   28 1
    52   27   51 1
    53   27   52 1
    54   28   53 1
    55   28   54 1
    56   28   55 1
