@<TRIPOS>MOLECULE
ZINC49486457
   29    30     0     0     0
SMALL
USER_CHARGES

@<TRIPOS>ATOM
      1 C1         -0.0103    1.5441   -0.0070 C.3       1 <0>        -0.1476
      2 C2          0.0030    0.0142   -0.0053 C.3       1 <0>        -0.1225
      3 H1          0.5269   -0.3437    0.8809 H         1 <0>         0.1298
      4 C3          0.7080   -0.4834   -1.2408 C.2       1 <0>         0.5394
      5 O1          0.0671   -0.7785   -2.2274 O.2       1 <0>        -0.4973
      6 N1          2.0506   -0.6005   -1.2495 N.am      1 <0>        -0.6567
      7 C4          2.6988   -1.1505   -2.3634 C.ar      1 <0>         0.1306
      8 C5          2.2005   -0.9266   -3.6385 C.ar      1 <0>        -0.0998
      9 C6          2.8423   -1.4702   -4.7364 C.ar      1 <0>        -0.0252
     10 C7          3.9809   -2.2379   -4.5659 C.ar      1 <0>        -0.1045
     11 C8          4.4821   -2.4651   -3.2977 C.ar      1 <0>        -0.1124
     12 C9          3.8482   -1.9187   -2.1936 C.ar      1 <0>         0.0890
     13 O2          4.3440   -2.1366   -0.9461 O.3       1 <0>        -0.4913
     14 Cl1         2.2179   -1.1892   -6.3316 Cl        1 <0>        -0.0559
     15 S1         -1.7019   -0.6053    0.0088 S.3       1 <0>         0.1377
     16 C10        -2.3371   -0.0699    1.5627 C.2       1 <0>         0.0171
     17 N2         -1.7541    0.6289    2.5286 N.2       1 <0>        -0.2906
     18 N3         -2.3630    0.9297    3.5913 N.2       1 <0>        -0.2710
     19 C11        -3.6117    0.5712    3.8108 C.2       1 <0>         0.0517
     20 S2         -3.9569   -0.3060    2.2886 S.3       1 <0>         0.0316
     21 H2          1.0142    1.9163   -0.0155 H         1 <0>         0.0780
     22 H3         -0.5342    1.9020   -0.8933 H         1 <0>         0.0781
     23 H4         -0.5202    1.9040    0.8866 H         1 <0>         0.0886
     24 H5          2.5683   -0.3040   -0.4846 H         1 <0>         0.4218
     25 H6          1.3116   -0.3283   -3.7739 H         1 <0>         0.1564
     26 H7          4.4790   -2.6610   -5.4257 H         1 <0>         0.1423
     27 H8          5.3707   -3.0650   -3.1679 H         1 <0>         0.1459
     28 H9          3.9909   -2.9269   -0.5150 H         1 <0>         0.3938
     29 H10        -4.2475    0.7576    4.6638 H         1 <0>         0.2429
@<TRIPOS>BOND
     1    1    2 1
     2    1   21 1
     3    1   22 1
     4    1   23 1
     5    2    3 1
     6    2    4 1
     7    2   15 1
     8    4    5 2
     9    4    6 am
    10    6    7 1
    11    6   24 1
    12    7   12 ar
    13    7    8 ar
    14    8    9 ar
    15    8   25 1
    16    9   10 ar
    17    9   14 1
    18   10   11 ar
    19   10   26 1
    20   11   12 ar
    21   11   27 1
    22   12   13 1
    23   13   28 1
    24   15   16 1
    25   16   20 1
    26   16   17 2
    27   17   18 1
    28   18   19 2
    29   19   20 1
    30   19   29 1
