@<TRIPOS>MOLECULE
ZINC40174628
   59    60     0     0     0
SMALL
USER_CHARGES

@<TRIPOS>ATOM
      1 C1         -0.0187    1.5258    0.0104 C.3       1 <0>        -0.1539
      2 C2          0.0021   -0.0041    0.0020 C.3       1 <0>        -0.1357
      3 C3          0.7421   -0.5109    1.2415 C.3       1 <0>         0.1204
      4 H1          1.7350   -0.0630    1.2804 H         1 <0>         0.1425
      5 C4          0.8700   -2.0108    1.1719 C.2       1 <0>         0.4928
      6 O1          0.3824   -2.7020    2.0410 O.2       1 <0>        -0.4583
      7 N1          1.5263   -2.5842    0.1438 N.am      1 <0>        -0.6222
      8 C5          1.6436   -3.9598    0.0799 C.2       1 <0>         0.2887
      9 C6          2.2924   -4.6709   -0.9123 C.2       1 <0>        -0.2246
     10 C7          2.1411   -6.0950   -0.5337 C.2       1 <0>        -0.1592
     11 C8          1.4303   -6.0933    0.6253 C.2       1 <0>         0.0668
     12 O2          1.1527   -4.8306    0.9722 O.3       1 <0>        -0.1382
     13 C9          1.0237   -7.3200    1.4006 C.3       1 <0>        -0.0840
     14 C10         2.6526   -7.2670   -1.2606 C.2       1 <0>         0.5406
     15 O3          3.7607   -7.7005   -1.0119 O.2       1 <0>        -0.4760
     16 O4          1.8926   -7.8602   -2.2027 O.3       1 <0>        -0.3425
     17 C11         2.4526   -8.9936   -2.8690 C.3       1 <0>         0.0569
     18 C12         1.4517   -9.5277   -3.8955 C.3       1 <0>        -0.1517
     19 C13         2.9821   -4.1312   -2.0878 C.2       1 <0>         0.5900
     20 O5          4.1661   -3.8562   -2.0257 O.2       1 <0>        -0.5153
     21 N2          2.3051   -3.9394   -3.2373 N.am      1 <0>        -0.8411
     22 N3         -0.0083   -0.1401    2.4439 N.pl3     1 <0>        -0.4884
     23 C14        -1.2852   -0.5223    2.7432 C.2       1 <0>         0.5165
     24 N4         -1.6065    0.0068    3.8981 N.2       1 <0>        -0.3631
     25 N5         -0.5093    0.7487    4.3549 N.2       1 <0>        -0.2918
     26 C15         0.4484    0.6442    3.4659 C.2       1 <0>         0.1858
     27 S1          2.0428    1.3872    3.5687 S.3       1 <0>         0.0673
     28 C16         2.0094    2.2813    5.1466 C.3       1 <0>        -0.1188
     29 C17         3.3317    2.9718    5.3608 C.2       1 <0>         0.4862
     30 O6          4.2068    2.8710    4.5339 O.2       1 <0>        -0.4893
     31 O7          3.5372    3.6987    6.4704 O.3       1 <0>        -0.3421
     32 C18         4.8140    4.3255    6.6080 C.3       1 <0>         0.0604
     33 C19         4.8609    5.1036    7.9245 C.3       1 <0>        -0.1537
     34 N6         -2.1002   -1.3298    1.9604 N.pl3     1 <0>        -0.8211
     35 H2          1.0039    1.9031    0.0027 H         1 <0>         0.0694
     36 H3         -0.5459    1.8868   -0.8726 H         1 <0>         0.0728
     37 H4         -0.5289    1.8773    0.9072 H         1 <0>         0.0603
     38 H5         -1.0205   -0.3814    0.0098 H         1 <0>         0.0813
     39 H6          0.5123   -0.3556   -0.8948 H         1 <0>         0.0949
     40 H7          1.9162   -2.0314   -0.5513 H         1 <0>         0.4366
     41 H8          1.8007   -7.5666    2.1241 H         1 <0>         0.0974
     42 H9          0.0880   -7.1250    1.9246 H         1 <0>         0.0941
     43 H10         0.8883   -8.1555    0.7138 H         1 <0>         0.0965
     44 H11         3.3714   -8.6995   -3.3764 H         1 <0>         0.0705
     45 H12         2.6740   -9.7718   -2.1385 H         1 <0>         0.0719
     46 H13         1.2302   -8.7496   -4.6260 H         1 <0>         0.0672
     47 H14         1.8788  -10.3922   -4.4038 H         1 <0>         0.0827
     48 H15         0.5329   -9.8218   -3.3882 H         1 <0>         0.0683
     49 H16         1.3614   -4.1585   -3.2867 H         1 <0>         0.4061
     50 H17         2.7614   -3.5822   -4.0151 H         1 <0>         0.4092
     51 H18         1.2111    3.0232    5.1270 H         1 <0>         0.1418
     52 H19         1.8312    1.5773    5.9595 H         1 <0>         0.1410
     53 H20         5.5943    3.5645    6.6077 H         1 <0>         0.0721
     54 H21         4.9742    5.0104    5.7752 H         1 <0>         0.0721
     55 H22         4.0806    5.8647    7.9248 H         1 <0>         0.0687
     56 H23         4.7008    4.4188    8.7572 H         1 <0>         0.0687
     57 H24         5.8348    5.5818    8.0295 H         1 <0>         0.0830
     58 H25        -1.7724   -1.6760    1.1157 H         1 <0>         0.4031
     59 H26        -2.9973   -1.5476    2.2584 H         1 <0>         0.4263
@<TRIPOS>BOND
     1    1    2 1
     2    1   35 1
     3    1   36 1
     4    1   37 1
     5    2    3 1
     6    2   38 1
     7    2   39 1
     8    3    4 1
     9    3    5 1
    10    3   22 1
    11    5    6 2
    12    5    7 am
    13    7    8 1
    14    7   40 1
    15    8   12 1
    16    8    9 2
    17    9   10 1
    18    9   19 1
    19   10   11 2
    20   10   14 1
    21   11   12 1
    22   11   13 1
    23   13   41 1
    24   13   42 1
    25   13   43 1
    26   14   15 2
    27   14   16 1
    28   16   17 1
    29   17   18 1
    30   17   44 1
    31   17   45 1
    32   18   46 1
    33   18   47 1
    34   18   48 1
    35   19   20 2
    36   19   21 am
    37   21   49 1
    38   21   50 1
    39   22   26 1
    40   22   23 1
    41   23   24 2
    42   23   34 1
    43   24   25 1
    44   25   26 2
    45   26   27 1
    46   27   28 1
    47   28   29 1
    48   28   51 1
    49   28   52 1
    50   29   30 2
    51   29   31 1
    52   31   32 1
    53   32   33 1
    54   32   53 1
    55   32   54 1
    56   33   55 1
    57   33   56 1
    58   33   57 1
    59   34   58 1
    60   34   59 1
