@<TRIPOS>MOLECULE
ZINC05574059
   52    55     0     0     0
SMALL
USER_CHARGES

@<TRIPOS>ATOM
      1 C1         -0.0184    1.5028    0.0103 C.3       1 <0>        -0.1117
      2 C2          0.0021   -0.0041    0.0020 C.ar      1 <0>        -0.0875
      3 C3          0.0057   -0.6887   -1.1989 C.ar      1 <0>        -0.1237
      4 C4          0.0245   -2.0709   -1.2065 C.ar      1 <0>        -0.0959
      5 C5          0.0400   -2.7685   -0.0132 C.ar      1 <0>        -0.0789
      6 C6          0.0373   -2.0839    1.1877 C.ar      1 <0>        -0.0798
      7 C7          0.0229   -0.7016    1.1953 C.ar      1 <0>        -0.1211
      8 C8          0.0595   -4.2753   -0.0215 C.3       1 <0>         0.2178
      9 H1          0.0585   -4.6350   -1.0505 H         1 <0>         0.0822
     10 C9         -1.1778   -4.8093    0.7108 C.3       1 <0>        -0.1362
     11 C10        -1.0289   -6.3166    0.9470 C.3       1 <0>         0.2017
     12 H2         -0.8802   -6.8234   -0.0065 H         1 <0>         0.0786
     13 N1          0.1415   -6.5436    1.8166 N.pl3     1 <0>        -0.7158
     14 C11         1.2801   -5.8068    1.5183 C.2       1 <0>         0.5215
     15 N2          1.2598   -4.7538    0.6638 N.pl3     1 <0>        -0.4281
     16 N3          2.5648   -4.2638    0.5992 N.2       1 <0>        -0.3710
     17 C12         3.2928   -5.0186    1.3918 C.2       1 <0>         0.5263
     18 N4          2.5035   -5.9542    1.9522 N.2       1 <0>        -0.6307
     19 N5          4.6618   -4.8705    1.6191 N.2       1 <0>        -1.0688
     20 S1          5.4465   -5.9025    2.6495 S.o2      1 <0>         2.7391
     21 O1          4.9248   -5.6545    3.9478 O.2       1 <0>        -1.0451
     22 O2          5.4065   -7.1880    2.0452 O.2       1 <0>        -1.0457
     23 N6          7.0375   -5.4446    2.6834 N.pl3     1 <0>        -1.0053
     24 C13         7.4959   -4.4610    3.6676 C.3       1 <0>         0.1090
     25 C14         7.9867   -6.0232    1.7292 C.3       1 <0>         0.1013
     26 C15        -2.2706   -6.8491    1.6146 C.ar      1 <0>        -0.0887
     27 C16        -2.4481   -6.6848    2.9756 C.ar      1 <0>        -0.1027
     28 C17        -3.5871   -7.1732    3.5880 C.ar      1 <0>        -0.1184
     29 C18        -4.5487   -7.8256    2.8394 C.ar      1 <0>        -0.1190
     30 C19        -4.3716   -7.9891    1.4782 C.ar      1 <0>        -0.1205
     31 C20        -3.2347   -7.4969    0.8651 C.ar      1 <0>        -0.1051
     32 H3          1.0042    1.8801    0.0026 H         1 <0>         0.0690
     33 H4         -0.5455    1.8639   -0.8728 H         1 <0>         0.0629
     34 H5         -0.5286    1.8543    0.9071 H         1 <0>         0.0629
     35 H6         -0.0064   -0.1436   -2.1312 H         1 <0>         0.1190
     36 H7          0.0266   -2.6057   -2.1448 H         1 <0>         0.1204
     37 H8          0.0491   -2.6289    2.1200 H         1 <0>         0.1148
     38 H9          0.0245   -0.1667    2.1335 H         1 <0>         0.1181
     39 H10        -1.2796   -4.3004    1.6693 H         1 <0>         0.0835
     40 H11        -2.0654   -4.6230    0.1062 H         1 <0>         0.0976
     41 H12         0.1168   -7.1718    2.5552 H         1 <0>         0.4179
     42 H13         7.8137   -4.9754    4.5745 H         1 <0>         0.0410
     43 H14         8.3342   -3.8988    3.2561 H         1 <0>         0.0576
     44 H15         6.6810   -3.7770    3.9044 H         1 <0>         0.0675
     45 H16         7.4664   -6.7291    1.0818 H         1 <0>         0.0794
     46 H17         8.4232   -5.2288    1.1239 H         1 <0>         0.0485
     47 H18         8.7768   -6.5422    2.2720 H         1 <0>         0.0450
     48 H19        -1.6968   -6.1751    3.5606 H         1 <0>         0.1269
     49 H20        -3.7255   -7.0455    4.6515 H         1 <0>         0.1227
     50 H21        -5.4383   -8.2079    3.3179 H         1 <0>         0.1204
     51 H22        -5.1228   -8.4991    0.8933 H         1 <0>         0.1224
     52 H23        -3.0980   -7.6214   -0.1990 H         1 <0>         0.1249
@<TRIPOS>BOND
     1    1    2 1
     2    1   32 1
     3    1   33 1
     4    1   34 1
     5    2    7 ar
     6    2    3 ar
     7    3    4 ar
     8    3   35 1
     9    4    5 ar
    10    4   36 1
    11    5    6 ar
    12    5    8 1
    13    6    7 ar
    14    6   37 1
    15    7   38 1
    16    8    9 1
    17    8   15 1
    18    8   10 1
    19   10   11 1
    20   10   39 1
    21   10   40 1
    22   11   12 1
    23   11   13 1
    24   11   26 1
    25   13   14 1
    26   13   41 1
    27   14   18 2
    28   14   15 1
    29   15   16 1
    30   16   17 2
    31   17   18 1
    32   17   19 1
    33   19   20 1
    34   20   21 2
    35   20   22 2
    36   20   23 1
    37   23   24 1
    38   23   25 1
    39   24   42 1
    40   24   43 1
    41   24   44 1
    42   25   45 1
    43   25   46 1
    44   25   47 1
    45   26   31 ar
    46   26   27 ar
    47   27   28 ar
    48   27   48 1
    49   28   29 ar
    50   28   49 1
    51   29   30 ar
    52   29   50 1
    53   30   31 ar
    54   30   51 1
    55   31   52 1
