@<TRIPOS>MOLECULE
ZINC04042587
   39    40     0     0     0
SMALL
USER_CHARGES

@<TRIPOS>ATOM
      1 C1          0.7313   -1.3761    1.9035 C.3       1 <0>        -0.1427
      2 C2         -0.0346   -0.5700    0.8525 C.3       1 <0>        -0.0915
      3 C3         -0.1061    0.8955    1.2862 C.3       1 <0>        -0.1521
      4 C4          0.6879   -0.6691   -0.4925 C.3       1 <0>         0.0757
      5 H1          0.1976   -0.0243   -1.2218 H         1 <0>         0.0964
      6 C5          0.6652   -2.0959   -0.9783 C.2       1 <0>        -0.2608
      7 C6         -0.3552   -2.8187   -1.4642 C.2       1 <0>         0.1436
      8 N1          0.1199   -4.0498   -1.7634 N.pl3     1 <0>        -0.4612
      9 H2         -0.3947   -4.7847   -2.1321 H         1 <0>         0.4478
     10 N2          1.4874   -4.0782   -1.4471 N.2       1 <0>        -0.2607
     11 C7          1.8188   -2.9106   -0.9775 C.2       1 <0>         0.2691
     12 O1          3.0234   -2.4545   -0.5409 O.3       1 <0>        -0.2122
     13 C8          3.1553   -1.1254   -0.3596 C.2       1 <0>         0.4362
     14 C9          2.1272   -0.2505   -0.3292 C.2       1 <0>        -0.2655
     15 C10         2.4163    1.1383   -0.1337 C.1       1 <0>         0.2743
     16 N3          2.6457    2.2400    0.0214 N.1       1 <0>        -0.4478
     17 N4          4.4231   -0.6261   -0.1942 N.pl3     1 <0>        -0.8343
     18 C11        -1.7744   -2.3449   -1.6442 C.3       1 <0>        -0.0045
     19 C12        -2.6238   -2.8180   -0.4628 C.3       1 <0>        -0.1456
     20 C13        -1.7976   -0.8165   -1.7093 C.3       1 <0>        -0.1624
     21 C14        -2.3429   -2.9194   -2.9434 C.3       1 <0>        -0.1495
     22 H3          0.7822   -2.4202    1.5945 H         1 <0>         0.0508
     23 H4          1.7407   -0.9770    2.0029 H         1 <0>         0.0549
     24 H5          0.2166   -1.3055    2.8617 H         1 <0>         0.0529
     25 H6         -1.0440   -0.9691    0.7530 H         1 <0>         0.0823
     26 H7          0.8973    1.2574    1.5106 H         1 <0>         0.0568
     27 H8         -0.5360    1.4920    0.4815 H         1 <0>         0.0543
     28 H9         -0.7305    0.9812    2.1755 H         1 <0>         0.0570
     29 H10         5.1861   -1.2249   -0.2102 H         1 <0>         0.4108
     30 H11         4.5562    0.3255   -0.0613 H         1 <0>         0.4257
     31 H12        -2.2188   -2.4088    0.4628 H         1 <0>         0.0668
     32 H13        -3.6503   -2.4754   -0.5930 H         1 <0>         0.0707
     33 H14        -2.6073   -3.9069   -0.4164 H         1 <0>         0.0574
     34 H15        -1.0889   -0.4742   -2.4635 H         1 <0>         0.0657
     35 H16        -2.8000   -0.4792   -1.9729 H         1 <0>         0.0677
     36 H17        -1.5202   -0.4072   -0.7379 H         1 <0>         0.0830
     37 H18        -2.3264   -4.0083   -2.8970 H         1 <0>         0.0549
     38 H19        -3.3694   -2.5767   -3.0736 H         1 <0>         0.0727
     39 H20        -1.7378   -2.5824   -3.7850 H         1 <0>         0.0634
@<TRIPOS>BOND
     1    1    2 1
     2    1   22 1
     3    1   23 1
     4    1   24 1
     5    2    3 1
     6    2    4 1
     7    2   25 1
     8    3   26 1
     9    3   27 1
    10    3   28 1
    11    4    5 1
    12    4   14 1
    13    4    6 1
    14    6   11 1
    15    6    7 2
    16    7    8 1
    17    7   18 1
    18    8    9 1
    19    8   10 1
    20   10   11 2
    21   11   12 1
    22   12   13 1
    23   13   14 2
    24   13   17 1
    25   14   15 1
    26   15   16 3
    27   17   29 1
    28   17   30 1
    29   18   19 1
    30   18   20 1
    31   18   21 1
    32   19   31 1
    33   19   32 1
    34   19   33 1
    35   20   34 1
    36   20   35 1
    37   20   36 1
    38   21   37 1
    39   21   38 1
    40   21   39 1
