@<TRIPOS>MOLECULE
ZINC12636039
   58    61     0     0     0
SMALL
USER_CHARGES
2-[4-[(1R)-1-[1-(p-tolylsulfonylmethyl)tetrazol-5-yl]propyl]piperazin-1-yl]pyrimidine
@<TRIPOS>ATOM
      1 C1         -2.1570    1.0039    1.2468 C.3       1 <0>        -0.1625
      2 C2         -0.8545    1.7853    1.4308 C.3       1 <0>        -0.1468
      3 C3         -0.0445    1.1649    2.5710 C.3       1 <0>         0.1233
      4 H1          0.1281    0.1092    2.3616 H         1 <0>         0.1621
      5 C4         -0.8084    1.3025    3.8627 C.2       1 <0>         0.1251
      6 N1         -0.9594    2.3957    4.5700 N.2       1 <0>        -0.2676
      7 N2         -1.6749    2.1065    5.6017 N.2       1 <0>        -0.0295
      8 N3         -1.9843    0.8572    5.5709 N.2       1 <0>        -0.0384
      9 N4         -1.4730    0.3281    4.5111 N.pl3     1 <0>        -0.2746
     10 C5         -1.5906   -1.0713    4.0937 C.3       1 <0>        -0.4119
     11 S1         -0.2225   -2.0302    4.8004 S.o2      1 <0>         2.4857
     12 O1          1.0089   -1.6309    4.2145 O.2       1 <0>        -0.9196
     13 O2         -0.3602   -2.1118    6.2124 O.2       1 <0>        -0.8844
     14 C6         -0.4801   -3.6764    4.2277 C.ar      1 <0>        -0.6711
     15 C7         -1.2403   -4.5570    4.9744 C.ar      1 <0>        -0.0129
     16 C8         -1.4460   -5.8473    4.5229 C.ar      1 <0>        -0.1351
     17 C9         -0.8836   -6.2598    3.3294 C.ar      1 <0>        -0.0073
     18 C10        -0.1195   -5.3807    2.5850 C.ar      1 <0>        -0.1381
     19 C11         0.0826   -4.0891    3.0344 C.ar      1 <0>        -0.0185
     20 C12        -1.1040   -7.6678    2.8395 C.3       1 <0>        -0.1350
     21 C13         2.0475    1.6885    1.4691 C.3       1 <0>        -0.0021
     22 C14         3.3456    2.4888    1.6001 C.3       1 <0>         0.0386
     23 N5          4.0859    2.0264    2.7824 N.pl3     1 <0>        -0.4612
     24 C15         3.2837    2.1958    4.0020 C.3       1 <0>         0.0486
     25 C16         1.9857    1.3955    3.8710 C.3       1 <0>        -0.0149
     26 C17         5.3012    2.6794    2.8933 C.ar      1 <0>         0.4760
     27 N6          5.5805    3.3412    4.0066 N.ar      1 <0>        -0.5494
     28 C18         6.7351    3.9712    4.1470 C.ar      1 <0>         0.1785
     29 C19         7.6518    3.9423    3.1079 C.ar      1 <0>        -0.2371
     30 C20         7.3251    3.2454    1.9552 C.ar      1 <0>         0.1791
     31 N7          6.1554    2.6323    1.8816 N.ar      1 <0>        -0.5233
     32 H2         -2.7802    1.1225    2.1331 H         1 <0>         0.0605
     33 H3         -1.9297   -0.0521    1.1010 H         1 <0>         0.0690
     34 H4         -2.6890    1.3848    0.3750 H         1 <0>         0.0942
     35 H5         -0.2738    1.7458    0.5093 H         1 <0>         0.1141
     36 H6         -1.0844    2.8233    1.6713 H         1 <0>         0.1062
     37 H7         -2.5389   -1.4771    4.4461 H         1 <0>         0.1942
     38 H8         -1.5520   -1.1305    3.0060 H         1 <0>         0.1748
     39 H9         -1.6762   -4.2360    5.9089 H         1 <0>         0.1481
     40 H10        -2.0432   -6.5341    5.1043 H         1 <0>         0.1433
     41 H11         0.3198   -5.7030    1.6526 H         1 <0>         0.1413
     42 H12         0.6799   -3.4023    2.4530 H         1 <0>         0.1432
     43 H13        -0.3148   -8.3140    3.2239 H         1 <0>         0.0883
     44 H14        -2.0712   -8.0275    3.1906 H         1 <0>         0.0798
     45 H15        -1.0854   -7.6805    1.7498 H         1 <0>         0.0789
     46 H16         2.2833    0.6331    1.3326 H         1 <0>         0.1524
     47 H17         1.4829    2.0496    0.6094 H         1 <0>         0.1487
     48 H18         3.1105    3.5476    1.7094 H         1 <0>         0.0732
     49 H19         3.9554    2.3418    0.7087 H         1 <0>         0.1453
     50 H20         3.0480    3.2512    4.1385 H         1 <0>         0.0831
     51 H21         3.8483    1.8348    4.8617 H         1 <0>         0.1377
     52 H22         1.3761    1.5429    4.7624 H         1 <0>         0.1266
     53 H23         2.2207    0.3368    3.7617 H         1 <0>         0.1633
     54 H24         6.9588    4.5056    5.0585 H         1 <0>         0.1775
     55 H25         8.6003    4.4516    3.1946 H         1 <0>         0.1577
     56 H26         8.0174    3.2031    1.1274 H         1 <0>         0.1796
     57 N8          1.2409    1.8853    2.6921 N.4       1 <0>        -0.3922
     58 H27         1.0518    2.8877    2.8095 H         1 <0>         0.4355
@<TRIPOS>BOND
     1    1    2 1
     2    1   32 1
     3    1   33 1
     4    1   34 1
     5    2    3 1
     6    2   35 1
     7    2   36 1
     8    3    4 1
     9    3    5 1
    10    3   57 1
    11    5    9 1
    12    5    6 2
    13    6    7 1
    14    7    8 2
    15    8    9 1
    16    9   10 1
    17   10   11 1
    18   10   37 1
    19   10   38 1
    20   11   12 2
    21   11   13 2
    22   11   14 1
    23   14   19 ar
    24   14   15 ar
    25   15   16 ar
    26   15   39 1
    27   16   17 ar
    28   16   40 1
    29   17   18 ar
    30   17   20 1
    31   18   19 ar
    32   18   41 1
    33   19   42 1
    34   20   43 1
    35   20   44 1
    36   20   45 1
    37   21   22 1
    38   21   46 1
    39   21   47 1
    40   21   57 1
    41   22   23 1
    42   22   48 1
    43   22   49 1
    44   23   24 1
    45   23   26 1
    46   24   25 1
    47   24   50 1
    48   24   51 1
    49   25   52 1
    50   25   53 1
    51   25   57 1
    52   26   31 ar
    53   26   27 ar
    54   27   28 ar
    55   28   29 ar
    56   28   54 1
    57   29   30 ar
    58   29   55 1
    59   30   31 ar
    60   30   56 1
    61   57   58 1
