@<TRIPOS>MOLECULE
ZINC33444781
   72    75     0     0     0
SMALL
USER_CHARGES
(5E)-5-[[2-[(2R,6S)-2,6-dimethylmorpholin-4-yl]-7-methyl-4-oxo-pyrido[1,2-a]pyrimidin-3-yl]methylene]-3-[(2S)-2-ethylhexyl]-2-thioxo-thiazolidin-4-one
@<TRIPOS>ATOM
      1 C1          4.4122   -2.2796    9.6582 C.3       1 <0>        -0.1551
      2 C2          5.4030   -1.9090    8.5528 C.3       1 <0>        -0.1245
      3 C3          4.6836   -1.0957    7.4748 C.3       1 <0>        -0.1198
      4 C4          5.6744   -0.7251    6.3694 C.3       1 <0>        -0.1127
      5 C5          4.9325   -0.0103    5.2382 C.3       1 <0>        -0.0975
      6 H1          4.3963    0.8603    5.6439 H         1 <0>         0.0786
      7 C6          3.9308   -0.9729    4.5972 C.3       1 <0>        -0.1161
      8 C7          4.6553   -2.2488    4.1637 C.3       1 <0>        -0.1486
      9 C8          5.9381    0.4561    4.1836 C.3       1 <0>         0.0877
     10 N1          5.2440    1.2432    3.1614 N.am      1 <0>        -0.5179
     11 C9          4.7432    0.6356    2.0999 C.2       1 <0>         0.5482
     12 O1          4.8509   -0.5700    1.9592 O.2       1 <0>        -0.4420
     13 C10         4.0746    1.4297    1.1251 C.2       1 <0>        -0.2450
     14 C11         3.4794    1.0511   -0.0433 C.2       1 <0>         0.1548
     15 C12         3.6008   -0.2823   -0.4992 C.2       1 <0>        -0.3431
     16 C13         4.8730   -0.8568   -0.7302 C.2       1 <0>         0.4647
     17 N2          4.9568   -2.1084   -1.1572 N.2       1 <0>        -0.5715
     18 C14         3.8687   -2.8470   -1.3769 C.2       1 <0>         0.4267
     19 C15         4.0195   -4.1699   -1.8300 C.2       1 <0>        -0.1400
     20 C16         2.9128   -4.9328   -2.0580 C.2       1 <0>        -0.0142
     21 C17         1.6404   -4.3888   -1.8359 C.2       1 <0>        -0.1313
     22 C18         1.5141   -3.1154   -1.3998 C.2       1 <0>         0.1013
     23 N3          2.6144   -2.3439   -1.1702 N.am      1 <0>        -0.4258
     24 C19         2.4529   -1.0774   -0.7301 C.2       1 <0>         0.5380
     25 O2          1.3371   -0.6251   -0.5395 O.2       1 <0>        -0.5182
     26 C20         0.4111   -5.2245   -2.0840 C.3       1 <0>        -0.1117
     27 N4          6.0167   -0.1202   -0.5122 N.pl3     1 <0>        -0.4690
     28 C21         6.0978    1.0148   -1.4430 C.3       1 <0>         0.0262
     29 C22         7.3493    1.8382   -1.1276 C.3       1 <0>         0.0946
     30 H2          7.3249    2.2272   -0.0990 H         1 <0>         0.0675
     31 O3          8.5009    0.9935   -1.2022 O.3       1 <0>        -0.3822
     32 C23         8.4556   -0.1219   -0.3083 C.3       1 <0>         0.0894
     33 H3          8.4107    0.3035    0.7051 H         1 <0>         0.0627
     34 C24         7.2153   -0.9652   -0.6155 C.3       1 <0>         0.0359
     35 C25         9.7120   -0.9754   -0.4922 C.3       1 <0>        -0.1434
     36 C26         7.4826    2.9747   -2.1433 C.3       1 <0>        -0.1462
     37 S1          4.2279    3.0575    1.8477 S.3       1 <0>         0.0474
     38 C27         5.1245    2.5806    3.3174 C.2       1 <0>         0.2909
     39 S2          5.6837    3.5659    4.6009 S.2       1 <0>        -0.3529
     40 H4          4.9294   -2.8643   10.4332 H         1 <0>         0.0539
     41 H5          3.5942   -2.8787    9.2316 H         1 <0>         0.0526
     42 H6          4.0007   -1.3622   10.1044 H         1 <0>         0.0542
     43 H7          6.2210   -1.3099    8.9794 H         1 <0>         0.0619
     44 H8          5.8145   -2.8263    8.1066 H         1 <0>         0.0599
     45 H9          3.8656   -1.6948    7.0483 H         1 <0>         0.0639
     46 H10         4.2721   -0.1784    7.9211 H         1 <0>         0.0624
     47 H11         6.4482   -0.0590    6.7788 H         1 <0>         0.0680
     48 H12         6.1463   -1.6386    5.9786 H         1 <0>         0.0709
     49 H13         3.1472   -1.2260    5.3266 H         1 <0>         0.0628
     50 H14         3.4732   -0.4946    3.7187 H         1 <0>         0.0511
     51 H15         3.9351   -2.9408    3.7029 H         1 <0>         0.0438
     52 H16         5.1128   -2.7271    5.0423 H         1 <0>         0.0541
     53 H17         5.4389   -1.9957    3.4343 H         1 <0>         0.0690
     54 H18         6.7103    1.0762    4.6623 H         1 <0>         0.1091
     55 H19         6.4100   -0.4197    3.7143 H         1 <0>         0.1056
     56 H20         2.9053    1.7830   -0.6304 H         1 <0>         0.1503
     57 H21         5.0053   -4.5785   -1.9966 H         1 <0>         0.1710
     58 H22         3.0160   -5.9498   -2.4066 H         1 <0>         0.1585
     59 H23         0.5297   -2.7042   -1.2317 H         1 <0>         0.1851
     60 H24        -0.4872   -4.6319   -1.8563 H         1 <0>         0.0757
     61 H25         0.4365   -6.1147   -1.4383 H         1 <0>         0.0830
     62 H26         0.3868   -5.5369   -3.1384 H         1 <0>         0.0831
     63 H27         6.1543    0.6391   -2.4753 H         1 <0>         0.0669
     64 H28         5.2037    1.6456   -1.3308 H         1 <0>         0.0956
     65 H29         7.1440   -1.7924    0.1061 H         1 <0>         0.0991
     66 H30         7.2898   -1.3729   -1.6344 H         1 <0>         0.0713
     67 H31         9.6765   -1.8331    0.1956 H         1 <0>         0.0751
     68 H32        10.6030   -0.3679   -0.2751 H         1 <0>         0.0701
     69 H33         9.7598   -1.3388   -1.5293 H         1 <0>         0.0672
     70 H34         8.3820    3.5659   -1.9161 H         1 <0>         0.0740
     71 H35         6.5948    3.6218   -2.0881 H         1 <0>         0.0772
     72 H36         7.5668    2.5534   -3.1559 H         1 <0>         0.0672
@<TRIPOS>BOND
     1    1    2 1
     2    1   40 1
     3    1   41 1
     4    1   42 1
     5    2    3 1
     6    2   43 1
     7    2   44 1
     8    3    4 1
     9    3   45 1
    10    3   46 1
    11    4    5 1
    12    4   47 1
    13    4   48 1
    14    5    6 1
    15    5    7 1
    16    5    9 1
    17    7    8 1
    18    7   49 1
    19    7   50 1
    20    8   51 1
    21    8   52 1
    22    8   53 1
    23    9   10 1
    24    9   54 1
    25    9   55 1
    26   10   38 1
    27   10   11 am
    28   11   12 2
    29   11   13 1
    30   13   14 2
    31   13   37 1
    32   14   15 1
    33   14   56 1
    34   15   24 1
    35   15   16 2
    36   16   17 1
    37   16   27 1
    38   17   18 2
    39   18   23 1
    40   18   19 1
    41   19   20 2
    42   19   57 1
    43   20   21 1
    44   20   58 1
    45   21   22 2
    46   21   26 1
    47   22   23 1
    48   22   59 1
    49   23   24 am
    50   24   25 2
    51   26   60 1
    52   26   61 1
    53   26   62 1
    54   27   34 1
    55   27   28 1
    56   28   29 1
    57   28   63 1
    58   28   64 1
    59   29   30 1
    60   29   31 1
    61   29   36 1
    62   31   32 1
    63   32   33 1
    64   32   34 1
    65   32   35 1
    66   34   65 1
    67   34   66 1
    68   35   67 1
    69   35   68 1
    70   35   69 1
    71   36   70 1
    72   36   71 1
    73   36   72 1
    74   37   38 1
    75   38   39 2
