@<TRIPOS>MOLECULE
ZINC57367072
   55    56     0     0     0
SMALL
USER_CHARGES

@<TRIPOS>ATOM
      1 C1          0.1541    2.5047    0.3337 C.3       1 <0>        -0.1527
      2 C2         -0.0941    1.0043    0.1653 C.3       1 <0>        -0.0998
      3 H1         -1.1664    0.8093    0.1825 H         1 <0>         0.0959
      4 C3          0.4877    0.5380   -1.1708 C.3       1 <0>        -0.1205
      5 C4          0.2395   -0.9623   -1.3392 C.3       1 <0>        -0.1223
      6 C5          0.9147   -1.7224   -0.1958 C.3       1 <0>        -0.1210
      7 C6          0.3328   -1.2561    1.1402 C.3       1 <0>        -0.1336
      8 C7          0.5810    0.2442    1.3086 C.3       1 <0>         0.1392
      9 H2          0.1665    0.5764    2.2604 H         1 <0>         0.0925
     10 N1          2.0222    0.5064    1.2855 N.pl3     1 <0>        -0.6936
     11 C8          2.7727    0.3867    2.4573 C.ar      1 <0>         0.3294
     12 C9          2.1386    0.1347    3.6675 C.ar      1 <0>        -0.2093
     13 C10         2.8836    0.0165    4.8241 C.ar      1 <0>         0.0647
     14 C11         4.2596    0.1487    4.7787 C.ar      1 <0>        -0.7454
     15 C12         4.8938    0.4000    3.5761 C.ar      1 <0>         0.0848
     16 C13         4.1551    0.5137    2.4145 C.ar      1 <0>        -0.1453
     17 N2          4.8354    0.7765    1.1266 N.pl3     1 <0>         0.0379
     18 O1          4.4355    0.2516    0.1136 O.2       1 <0>        -0.1711
     19 O2          5.7910    1.5162    1.0876 O.3       1 <0>        -0.1360
     20 S1          5.2065   -0.0029    6.2569 S.o2      1 <0>         2.7033
     21 O3          6.4199    0.7029    6.0361 O.2       1 <0>        -0.9409
     22 O4          4.3312    0.3049    7.3332 O.2       1 <0>        -0.9322
     23 N3          5.6108   -1.6007    6.4177 N.pl3     1 <0>        -1.1154
     24 C14         6.4928   -2.2355    5.4353 C.3       1 <0>         0.0881
     25 C15         7.0054   -3.5645    5.9938 C.3       1 <0>        -0.0185
     26 N4          7.8898   -4.2011    5.0087 N.4       1 <0>        -0.3860
     27 C16         8.4761   -5.4162    5.5900 C.3       1 <0>        -0.0470
     28 C17         7.1151   -4.5555    3.8119 C.3       1 <0>        -0.0569
     29 H3          1.2263    2.6997    0.3165 H         1 <0>         0.0500
     30 H4         -0.3269    3.0462   -0.4809 H         1 <0>         0.0670
     31 H5         -0.2604    2.8369    1.2855 H         1 <0>         0.0594
     32 H6          0.0067    1.0795   -1.9853 H         1 <0>         0.0745
     33 H7          1.5600    0.7331   -1.1880 H         1 <0>         0.0607
     34 H8         -0.8327   -1.1574   -1.3220 H         1 <0>         0.0668
     35 H9          0.6540   -1.2945   -2.2910 H         1 <0>         0.0688
     36 H10         0.7379   -2.7913   -0.3158 H         1 <0>         0.0660
     37 H11         1.9869   -1.5273   -0.2130 H         1 <0>         0.0656
     38 H12        -0.7394   -1.4512    1.1574 H         1 <0>         0.0830
     39 H13         0.8138   -1.7976    1.9548 H         1 <0>         0.0653
     40 H14         2.4552    0.7632    0.4563 H         1 <0>         0.4168
     41 H15         1.0641    0.0318    3.7037 H         1 <0>         0.1575
     42 H16         2.3913   -0.1790    5.7653 H         1 <0>         0.1587
     43 H17         5.9684    0.5033    3.5442 H         1 <0>         0.1599
     44 H18         5.2636   -2.1162    7.1624 H         1 <0>         0.4278
     45 H19         5.9391   -2.4179    4.5143 H         1 <0>         0.0862
     46 H20         7.3375   -1.5788    5.2274 H         1 <0>         0.1048
     47 H21         7.5591   -3.3822    6.9148 H         1 <0>         0.1440
     48 H22         6.1607   -4.2213    6.2016 H         1 <0>         0.1401
     49 H23         7.6800   -6.1083    5.8643 H         1 <0>         0.1238
     50 H24         9.1323   -5.8885    4.8590 H         1 <0>         0.1284
     51 H25         9.0510   -5.1532    6.4780 H         1 <0>         0.1265
     52 H26         6.6801   -3.6539    3.3806 H         1 <0>         0.1227
     53 H27         7.7713   -5.0278    3.0810 H         1 <0>         0.1300
     54 H28         6.3190   -5.2476    4.0863 H         1 <0>         0.1259
     55 H29         8.6268   -3.5604    4.7547 H         1 <0>         0.4313
@<TRIPOS>BOND
     1    1    2 1
     2    1   29 1
     3    1   30 1
     4    1   31 1
     5    2    3 1
     6    2    8 1
     7    2    4 1
     8    4    5 1
     9    4   32 1
    10    4   33 1
    11    5    6 1
    12    5   34 1
    13    5   35 1
    14    6    7 1
    15    6   36 1
    16    6   37 1
    17    7    8 1
    18    7   38 1
    19    7   39 1
    20    8    9 1
    21    8   10 1
    22   10   11 1
    23   10   40 1
    24   11   16 ar
    25   11   12 ar
    26   12   13 ar
    27   12   41 1
    28   13   14 ar
    29   13   42 1
    30   14   15 ar
    31   14   20 1
    32   15   16 ar
    33   15   43 1
    34   16   17 1
    35   17   18 2
    36   17   19 1
    37   20   21 2
    38   20   22 2
    39   20   23 1
    40   23   24 1
    41   23   44 1
    42   24   25 1
    43   24   45 1
    44   24   46 1
    45   25   26 1
    46   25   47 1
    47   25   48 1
    48   26   27 1
    49   26   28 1
    50   26   55 1
    51   27   49 1
    52   27   50 1
    53   27   51 1
    54   28   52 1
    55   28   53 1
    56   28   54 1
