@<TRIPOS>MOLECULE
ZINC35456550
   56    59     0     0     0
SMALL
USER_CHARGES

@<TRIPOS>ATOM
      1 C1         -0.0900    1.5208    0.6976 C.3       1 <0>        -0.1610
      2 C2         -0.0698   -0.0105    0.6849 C.3       1 <0>        -0.0790
      3 H1         -1.0883   -0.3585    0.9274 H         1 <0>         0.0682
      4 C3          0.2873   -0.5192   -0.7018 C.3       1 <0>        -0.1097
      5 C4          1.7474   -0.2350   -1.0417 C.3       1 <0>        -0.1107
      6 C5          2.6577   -0.9203   -0.0240 C.3       1 <0>        -0.0141
      7 C6          2.3286   -0.4342    1.3806 C.3       1 <0>        -0.0580
      8 H2          2.5942    0.6516    1.4004 H         1 <0>         0.0793
      9 C7          0.8707   -0.5234    1.7727 C.3       1 <0>        -0.0326
     10 C8          0.4638   -1.9412    2.1810 C.3       1 <0>        -0.1540
     11 C9          0.6504    0.3837    3.0091 C.3       1 <0>        -0.1143
     12 C10        -0.8090    0.2876    3.4585 C.3       1 <0>        -0.0738
     13 C11        -1.0233    1.1700    4.6613 C.2       1 <0>        -0.0695
     14 C12        -1.4820    2.4197    4.6568 C.2       1 <0>        -0.2211
     15 C13        -1.5384    2.9128    6.0365 C.2       1 <0>         0.5027
     16 O1         -1.9151    4.0196    6.3683 O.2       1 <0>        -0.4431
     17 O2         -1.1112    1.9554    6.8802 O.3       1 <0>        -0.3457
     18 C14        -0.7650    0.8040    6.1038 C.3       1 <0>         0.2703
     19 H3         -1.3860   -0.0444    6.3915 H         1 <0>         0.1226
     20 O3          0.6160    0.4874    6.2899 O.3       1 <0>        -0.5356
     21 C15         3.2569   -1.1013    2.3933 C.3       1 <0>        -0.1478
     22 C16         4.6992   -0.6553    2.1304 C.3       1 <0>         0.0746
     23 H4          5.3569   -1.1432    2.8550 H         1 <0>         0.0561
     24 C17         5.1331   -1.0458    0.7173 C.3       1 <0>         0.1358
     25 H5          5.2166   -2.1315    0.6472 H         1 <0>         0.0843
     26 C18         4.1197   -0.5351   -0.3075 C.3       1 <0>         0.0372
     27 C19         4.5618   -0.4364   -1.7651 C.3       1 <0>        -0.0329
     28 O4          4.3676    0.7159   -0.9413 O.3       1 <0>        -0.3186
     29 O5          6.4144   -0.4670    0.4425 O.3       1 <0>        -0.5477
     30 O6          4.7998    0.7605    2.2915 O.3       1 <0>        -0.5434
     31 C20         2.5352   -2.4362   -0.1707 C.3       1 <0>        -0.1498
     32 H6          0.9045    1.8993    0.4610 H         1 <0>         0.0586
     33 H7         -0.8019    1.8809   -0.0452 H         1 <0>         0.0530
     34 H8         -0.3869    1.8722    1.6857 H         1 <0>         0.0627
     35 H9          0.0780   -1.5858   -0.7792 H         1 <0>         0.0653
     36 H10        -0.3474   -0.0073   -1.4404 H         1 <0>         0.0609
     37 H11         1.9657   -0.6272   -2.0396 H         1 <0>         0.0623
     38 H12         1.9365    0.8376   -1.0396 H         1 <0>         0.0743
     39 H13         0.6219   -2.6201    1.3431 H         1 <0>         0.0629
     40 H14         1.0689   -2.2629    3.0286 H         1 <0>         0.0579
     41 H15        -0.5893   -1.9502    2.4622 H         1 <0>         0.0577
     42 H16         1.3023    0.0578    3.8195 H         1 <0>         0.0759
     43 H17         0.8830    1.4161    2.7483 H         1 <0>         0.0738
     44 H18        -1.4610    0.6134    2.6481 H         1 <0>         0.0926
     45 H19        -1.0416   -0.7449    3.7193 H         1 <0>         0.0908
     46 H20        -1.7668    2.9800    3.7786 H         1 <0>         0.1733
     47 H21         0.8449    0.2438    7.1973 H         1 <0>         0.3973
     48 H22         2.9848   -0.7950    3.4068 H         1 <0>         0.0742
     49 H23         3.1985   -2.1838    2.3314 H         1 <0>         0.0779
     50 H24         5.5872   -0.7206   -2.0060 H         1 <0>         0.1080
     51 H25         3.8253   -0.6370   -2.5419 H         1 <0>         0.1069
     52 H26         7.1127   -0.7521    1.0476 H         1 <0>         0.3788
     53 H27         4.5621    1.0737    3.1749 H         1 <0>         0.3739
     54 H28         2.9477   -2.7426   -1.1320 H         1 <0>         0.0601
     55 H29         3.0859   -2.9246    0.6332 H         1 <0>         0.0597
     56 H30         1.4849   -2.7226   -0.1180 H         1 <0>         0.0727
@<TRIPOS>BOND
     1    1    2 1
     2    1   32 1
     3    1   33 1
     4    1   34 1
     5    2    3 1
     6    2    9 1
     7    2    4 1
     8    4    5 1
     9    4   35 1
    10    4   36 1
    11    5    6 1
    12    5   37 1
    13    5   38 1
    14    6   26 1
    15    6    7 1
    16    6   31 1
    17    7    8 1
    18    7    9 1
    19    7   21 1
    20    9   10 1
    21    9   11 1
    22   10   39 1
    23   10   40 1
    24   10   41 1
    25   11   12 1
    26   11   42 1
    27   11   43 1
    28   12   13 1
    29   12   44 1
    30   12   45 1
    31   13   18 1
    32   13   14 2
    33   14   15 1
    34   14   46 1
    35   15   16 2
    36   15   17 1
    37   17   18 1
    38   18   19 1
    39   18   20 1
    40   20   47 1
    41   21   22 1
    42   21   48 1
    43   21   49 1
    44   22   23 1
    45   22   24 1
    46   22   30 1
    47   24   25 1
    48   24   26 1
    49   24   29 1
    50   26   28 1
    51   26   27 1
    52   27   28 1
    53   27   50 1
    54   27   51 1
    55   29   52 1
    56   30   53 1
    57   31   54 1
    58   31   55 1
    59   31   56 1
