@<TRIPOS>MOLECULE
ZINC43149329
   45    46     0     0     0
SMALL
USER_CHARGES

@<TRIPOS>ATOM
      1 C1         -1.1095    0.7073    0.0994 C.3       1 <0>        -0.1236
      2 C2         -0.6160   -0.7163    0.1286 C.ar      1 <0>        -0.0641
      3 C3         -0.6794   -1.4935   -1.0116 C.ar      1 <0>        -0.0994
      4 C4         -0.2264   -2.7996   -0.9857 C.ar      1 <0>        -0.0698
      5 C5          0.2914   -3.3321    0.1809 C.ar      1 <0>        -0.0362
      6 C6          0.3570   -2.5604    1.3242 C.ar      1 <0>        -0.0590
      7 C7         -0.0919   -1.2463    1.3000 C.ar      1 <0>         0.1684
      8 N1         -0.0210   -0.4596    2.4553 N.am      1 <0>        -0.6814
      9 C8         -0.1745   -1.0277    3.6678 C.2       1 <0>         0.7014
     10 O1         -0.2957   -2.2337    3.7632 O.2       1 <0>        -0.5695
     11 N2         -0.1936   -0.2589    4.7746 N.am      1 <0>        -0.7230
     12 C9         -0.3605   -0.8763    6.0926 C.3       1 <0>         0.1461
     13 C10        -0.4732    0.2167    7.1573 C.3       1 <0>         0.0663
     14 H1          0.4557    0.7858    7.1935 H         1 <0>         0.0933
     15 C11        -0.7315   -0.4253    8.5219 C.3       1 <0>        -0.1858
     16 N3         -1.5853    1.1155    6.8206 N.3       1 <0>        -0.5300
     17 C12        -1.5597    2.3225    7.6594 C.3       1 <0>         0.0145
     18 C13        -2.6968    3.2560    7.2358 C.3       1 <0>         0.0636
     19 O2         -3.9410    2.5571    7.3306 O.3       1 <0>        -0.3839
     20 C14        -4.0009    1.3765    6.5258 C.3       1 <0>         0.0644
     21 C15        -2.8769    0.4239    6.9422 C.3       1 <0>         0.0105
     22 N4          0.7752   -4.7307    0.2042 N.pl3     1 <0>         0.0340
     23 O3          0.7176   -5.4070   -0.7962 O.2       1 <0>        -0.1586
     24 O4          1.2279   -5.1968    1.2237 O.3       1 <0>        -0.1528
     25 H2         -0.2911    1.3698   -0.1826 H         1 <0>         0.0839
     26 H3         -1.9167    0.7972   -0.6275 H         1 <0>         0.0826
     27 H4         -1.4775    0.9846    1.0872 H         1 <0>         0.0723
     28 H5         -1.0835   -1.0807   -1.9241 H         1 <0>         0.1520
     29 H6         -0.2774   -3.4053   -1.8784 H         1 <0>         0.1548
     30 H7          0.7608   -2.9770    2.2352 H         1 <0>         0.1739
     31 H8          0.1386    0.4944    2.3834 H         1 <0>         0.4128
     32 H9         -0.0969    0.7033    4.6985 H         1 <0>         0.4047
     33 H10        -1.2660   -1.4831    6.0976 H         1 <0>         0.0725
     34 H11         0.5011   -1.5076    6.3098 H         1 <0>         0.0756
     35 H12        -1.6605   -0.9944    8.4857 H         1 <0>         0.0656
     36 H13         0.0936   -1.0922    8.7717 H         1 <0>         0.0702
     37 H14        -0.8118    0.3534    9.2804 H         1 <0>         0.0644
     38 H15        -1.6892    2.0422    8.7047 H         1 <0>         0.0487
     39 H16        -0.6045    2.8325    7.5343 H         1 <0>         0.0870
     40 H17        -2.7171    4.1260    7.8921 H         1 <0>         0.0988
     41 H18        -2.5383    3.5791    6.2069 H         1 <0>         0.0588
     42 H19        -4.9643    0.8871    6.6686 H         1 <0>         0.0983
     43 H20        -3.8803    1.6449    5.4762 H         1 <0>         0.0577
     44 H21        -2.8833   -0.4521    6.2936 H         1 <0>         0.0875
     45 H22        -3.0275    0.1132    7.9760 H         1 <0>         0.0524
@<TRIPOS>BOND
     1    1    2 1
     2    1   25 1
     3    1   26 1
     4    1   27 1
     5    2    7 ar
     6    2    3 ar
     7    3    4 ar
     8    3   28 1
     9    4    5 ar
    10    4   29 1
    11    5    6 ar
    12    5   22 1
    13    6    7 ar
    14    6   30 1
    15    7    8 1
    16    8    9 am
    17    8   31 1
    18    9   10 2
    19    9   11 am
    20   11   12 1
    21   11   32 1
    22   12   13 1
    23   12   33 1
    24   12   34 1
    25   13   14 1
    26   13   15 1
    27   13   16 1
    28   15   35 1
    29   15   36 1
    30   15   37 1
    31   16   21 1
    32   16   17 1
    33   17   18 1
    34   17   38 1
    35   17   39 1
    36   18   19 1
    37   18   40 1
    38   18   41 1
    39   19   20 1
    40   20   21 1
    41   20   42 1
    42   20   43 1
    43   21   44 1
    44   21   45 1
    45   22   23 2
    46   22   24 1
