@<TRIPOS>MOLECULE
ZINC10072668
   49    51     0     0     0
SMALL
USER_CHARGES
[2-[2,5-dimethyl-1-(4-sulfamoylphenyl)-pyrrol-3-yl]-2-oxo-ethyl] 3-aminopyrazine-2-carboxylate
@<TRIPOS>ATOM
      1 C1         -5.9531    0.8708    4.5575 C.3       1 <0>        -0.0884
      2 C2         -5.0033    1.0919    5.7064 C.2       1 <0>         0.0188
      3 C3         -5.2667    1.8173    6.8060 C.2       1 <0>        -0.1456
      4 C4         -4.0593    1.7584    7.6412 C.2       1 <0>        -0.2570
      5 C5         -3.1562    0.9748    6.9476 C.2       1 <0>         0.1287
      6 N1         -3.7375    0.5833    5.7972 N.pl3     1 <0>        -0.4027
      7 C6         -3.1289   -0.2258    4.8280 C.ar      1 <0>         0.1663
      8 C7         -3.6344   -1.4910    4.5608 C.ar      1 <0>        -0.1274
      9 C8         -3.0322   -2.2862    3.6054 C.ar      1 <0>        -0.0029
     10 C9         -1.9269   -1.8233    2.9154 C.ar      1 <0>        -0.6743
     11 C10        -1.4179   -0.5658    3.1830 C.ar      1 <0>        -0.0073
     12 C11        -2.0189    0.2361    4.1335 C.ar      1 <0>        -0.1286
     13 S1         -1.1610   -2.8410    1.6978 S.o2      1 <0>         2.7035
     14 O1         -1.4913   -4.1838    2.0246 O.2       1 <0>        -0.9536
     15 O2          0.1828   -2.3937    1.5815 O.2       1 <0>        -0.9512
     16 N2         -1.8965   -2.5113    0.2512 N.pl3     1 <0>        -1.2425
     17 C12        -1.7633    0.6196    7.4001 C.3       1 <0>        -0.1023
     18 C13        -3.8548    2.3985    8.9422 C.2       1 <0>         0.4270
     19 O3         -2.7991    2.2639    9.5253 O.2       1 <0>        -0.4374
     20 C14        -4.9553    3.2242    9.5571 C.3       1 <0>         0.0396
     21 O4         -4.5107    3.7473   10.8365 O.3       1 <0>        -0.3119
     22 C15        -5.3833    4.5125   11.5211 C.2       1 <0>         0.5412
     23 O5         -6.4853    4.7366   11.0615 O.2       1 <0>        -0.5100
     24 C16        -5.0002    5.0786   12.8294 C.ar      1 <0>        -0.0400
     25 C17        -5.9442    5.7784   13.5996 C.ar      1 <0>         0.4173
     26 N3         -5.5899    6.2785   14.7780 N.ar      1 <0>        -0.5011
     27 C18        -4.3532    6.1259   15.2147 C.ar      1 <0>         0.1480
     28 C19        -3.4195    5.4398   14.4507 C.ar      1 <0>        -0.0141
     29 N4         -3.7579    4.9334   13.2827 N.ar      1 <0>        -0.3463
     30 N5         -7.2362    5.9408   13.1360 N.pl3     1 <0>        -0.8191
     31 H1         -6.5521   -0.0198    4.7475 H         1 <0>         0.0759
     32 H2         -6.6093    1.7354    4.4570 H         1 <0>         0.0868
     33 H3         -5.3850    0.7369    3.6369 H         1 <0>         0.0649
     34 H4         -6.1830    2.3434    7.0297 H         1 <0>         0.1558
     35 H5         -4.4975   -1.8531    5.0996 H         1 <0>         0.1428
     36 H6         -3.4252   -3.2703    3.3969 H         1 <0>         0.1537
     37 H7         -0.5517   -0.2088    2.6456 H         1 <0>         0.1541
     38 H8         -1.6232    1.2197    4.3395 H         1 <0>         0.1426
     39 H9         -2.3520   -3.2174   -0.2334 H         1 <0>         0.4243
     40 H10        -1.8717   -1.6121   -0.1117 H         1 <0>         0.4198
     41 H11        -1.0613    1.3713    7.0392 H         1 <0>         0.0852
     42 H12        -1.7324    0.5867    8.4891 H         1 <0>         0.1045
     43 H13        -1.4887   -0.3561    6.9992 H         1 <0>         0.0686
     44 H14        -5.1827    3.9835    8.9474 H         1 <0>         0.0938
     45 H15        -5.8372    2.6012    9.7059 H         1 <0>         0.1061
     46 H16        -4.0667    6.5374   16.1713 H         1 <0>         0.1820
     47 H17        -2.4102    5.3202   14.8158 H         1 <0>         0.1800
     48 H18        -7.5957    5.3269   12.4766 H         1 <0>         0.4244
     49 H19        -7.7835    6.6687   13.4700 H         1 <0>         0.4081
@<TRIPOS>BOND
     1    1    2 1
     2    1   31 1
     3    1   32 1
     4    1   33 1
     5    2    6 1
     6    2    3 2
     7    3    4 1
     8    3   34 1
     9    4    5 2
    10    4   18 1
    11    5    6 1
    12    5   17 1
    13    6    7 1
    14    7   12 ar
    15    7    8 ar
    16    8    9 ar
    17    8   35 1
    18    9   10 ar
    19    9   36 1
    20   10   11 ar
    21   10   13 1
    22   11   12 ar
    23   11   37 1
    24   12   38 1
    25   13   14 2
    26   13   15 2
    27   13   16 1
    28   16   39 1
    29   16   40 1
    30   17   41 1
    31   17   42 1
    32   17   43 1
    33   18   19 2
    34   18   20 1
    35   20   21 1
    36   20   44 1
    37   20   45 1
    38   21   22 1
    39   22   23 2
    40   22   24 1
    41   24   29 ar
    42   24   25 ar
    43   25   26 ar
    44   25   30 1
    45   26   27 ar
    46   27   28 ar
    47   27   46 1
    48   28   29 ar
    49   28   47 1
    50   30   48 1
    51   30   49 1
