@<TRIPOS>MOLECULE
ZINC52569826
   43    46     0     0     0
SMALL
USER_CHARGES

@<TRIPOS>ATOM
      1 C1         -2.0598    2.9461   -0.5940 C.ar      1 <0>        -0.0071
      2 C2         -1.0327    3.8637   -0.7595 C.ar      1 <0>        -0.1075
      3 C3          0.2375    3.3994   -1.0966 C.ar      1 <0>         0.4429
      4 N1          0.4754    2.1107   -1.2597 N.ar      1 <0>        -0.4601
      5 C4         -0.4836    1.1984   -1.1098 C.ar      1 <0>         0.2220
      6 C5         -1.7748    1.6126   -0.7714 C.ar      1 <0>        -0.1530
      7 C6         -2.5669    0.3297   -0.6919 C.3       1 <0>         0.0624
      8 H1         -3.3715    0.3279   -1.4272 H         1 <0>         0.2084
      9 N2         -1.5669   -0.7031   -1.0127 N.pl3     1 <0>        -0.2255
     10 N3         -0.4803   -0.1638   -1.2237 N.2       1 <0>         0.0377
     11 C7         -3.1256    0.1263    0.7179 C.3       1 <0>         0.0640
     12 O1         -3.9646   -1.0304    0.7355 O.3       1 <0>        -0.3075
     13 C8         -4.5445   -1.3540    1.9214 C.ar      1 <0>         0.1923
     14 C9         -5.3661   -2.4675    2.0104 C.ar      1 <0>        -0.2213
     15 C10        -5.9571   -2.7966    3.2207 C.ar      1 <0>         0.2025
     16 C11        -5.7256   -2.0107    4.3417 C.ar      1 <0>        -0.1307
     17 C12        -4.9054   -0.8991    4.2506 C.ar      1 <0>         0.1966
     18 C13        -4.3101   -0.5738    3.0439 C.ar      1 <0>        -0.2634
     19 F1         -4.6809   -0.1347    5.3417 F         1 <0>        -0.1057
     20 Cl1        -6.4651   -2.4218    5.8575 Cl        1 <0>        -0.0107
     21 O2         -6.7629   -3.8873    3.3095 O.3       1 <0>        -0.2219
     22 C14        -6.9547   -4.6318    2.1890 C.ar      1 <0>         0.0830
     23 C15        -6.1053   -5.6889    1.9067 C.ar      1 <0>        -0.0701
     24 C16        -6.3054   -6.4511    0.7552 C.ar      1 <0>         0.0096
     25 C17        -7.3612   -6.1431   -0.1054 C.ar      1 <0>        -0.0524
     26 C18        -8.2020   -5.0871    0.1855 C.ar      1 <0>        -0.0253
     27 C19        -8.0052   -4.3360    1.3311 C.ar      1 <0>        -0.0826
     28 Cl2        -9.5141   -4.7052   -0.8851 Cl        1 <0>        -0.0313
     29 C20        -5.4309   -7.5451    0.4567 C.1       1 <0>         0.2407
     30 N4         -4.7371   -8.4130    0.2199 N.1       1 <0>        -0.3790
     31 N5          1.2736    4.3103   -1.2648 N.pl3     1 <0>        -0.8161
     32 H2         -3.0554    3.2699   -0.3285 H         1 <0>         0.1779
     33 H3         -1.2143    4.9204   -0.6297 H         1 <0>         0.1801
     34 H4         -2.3022   -0.0115    1.4187 H         1 <0>         0.0986
     35 H5         -3.7071    1.0014    1.0080 H         1 <0>         0.1256
     36 H6         -5.5457   -3.0778    1.1377 H         1 <0>         0.1573
     37 H7         -3.6664    0.2907    2.9754 H         1 <0>         0.1528
     38 H8         -5.2902   -5.9223    2.5757 H         1 <0>         0.1538
     39 H9         -7.5197   -6.7300   -0.9981 H         1 <0>         0.1560
     40 H10        -8.6685   -3.5139    1.5561 H         1 <0>         0.1564
     41 H11         1.1091    5.2591   -1.1475 H         1 <0>         0.4279
     42 H12         2.1612    3.9973   -1.4994 H         1 <0>         0.4221
     43 H13        -1.7375   -1.6572   -1.0519 H         1 <0>         0.5006
@<TRIPOS>BOND
     1    1    6 ar
     2    1    2 ar
     3    1   32 1
     4    2    3 ar
     5    2   33 1
     6    3    4 ar
     7    3   31 1
     8    4    5 ar
     9    5   10 1
    10    5    6 ar
    11    6    7 1
    12    7    8 1
    13    7    9 1
    14    7   11 1
    15    9   10 2
    16    9   43 1
    17   11   12 1
    18   11   34 1
    19   11   35 1
    20   12   13 1
    21   13   18 ar
    22   13   14 ar
    23   14   15 ar
    24   14   36 1
    25   15   16 ar
    26   15   21 1
    27   16   17 ar
    28   16   20 1
    29   17   18 ar
    30   17   19 1
    31   18   37 1
    32   21   22 1
    33   22   27 ar
    34   22   23 ar
    35   23   24 ar
    36   23   38 1
    37   24   25 ar
    38   24   29 1
    39   25   26 ar
    40   25   39 1
    41   26   27 ar
    42   26   28 1
    43   27   40 1
    44   29   30 3
    45   31   41 1
    46   31   42 1
