@<TRIPOS>MOLECULE
ZINC55299119
   36    38     0     0     0
SMALL
USER_CHARGES

@<TRIPOS>ATOM
      1 C1         -0.0167    1.3781    0.0096 C.ar      1 <0>        -0.1138
      2 C2          1.1688    2.0915    0.0021 C.ar      1 <0>        -0.0945
      3 C3          2.3777    1.4189   -0.0131 C.ar      1 <0>         0.1086
      4 C4          2.3966    0.0247   -0.0211 C.ar      1 <0>         0.1128
      5 C5          1.2069   -0.6836   -0.0128 C.ar      1 <0>        -0.0802
      6 C6          0.0021   -0.0041    0.0020 C.ar      1 <0>        -0.1330
      7 C7         -1.2940   -0.7730    0.0110 C.3       1 <0>         0.0944
      8 H1         -1.1102   -1.7908    0.3552 H         1 <0>         0.1604
      9 C8         -1.8747   -0.8102   -1.4040 C.3       1 <0>         0.0374
     10 H2         -2.0588    0.2073   -1.7491 H         1 <0>         0.0947
     11 C9         -3.1903   -1.5941   -1.3969 C.3       1 <0>         0.0128
     12 O1         -3.6690   -1.7199   -2.7393 O.3       1 <0>        -0.3605
     13 C10        -2.7433   -2.3645   -3.6193 C.3       1 <0>         0.0179
     14 C11        -1.4277   -1.5805   -3.6265 C.3       1 <0>         0.0265
     15 O2         -0.9483   -1.4534   -2.2844 O.3       1 <0>        -0.3538
     16 N1         -2.2473   -0.1152    0.9145 N.4       1 <0>        -0.6316
     17 N2          3.6289   -0.6440   -0.0382 N.am      1 <0>        -0.6641
     18 C12         4.7508    0.0430    0.2688 C.2       1 <0>         0.4891
     19 O3          5.8312   -0.5070    0.2305 O.2       1 <0>        -0.4844
     20 C13         4.6548    1.4961    0.6587 C.3       1 <0>         0.0492
     21 O4          3.5524    2.1038   -0.0198 O.3       1 <0>        -0.2941
     22 H3         -0.9603    1.9032    0.0260 H         1 <0>         0.1314
     23 H4          1.1505    3.1713    0.0078 H         1 <0>         0.1538
     24 H5          1.2195   -1.7635   -0.0185 H         1 <0>         0.1452
     25 H6         -3.0214   -2.5853   -0.9759 H         1 <0>         0.0776
     26 H7         -3.9278   -1.0627   -0.7954 H         1 <0>         0.0999
     27 H8         -2.5594   -3.3816   -3.2732 H         1 <0>         0.0723
     28 H9         -3.1570   -2.3910   -4.6274 H         1 <0>         0.1208
     29 H10        -0.6902   -2.1120   -4.2279 H         1 <0>         0.1229
     30 H11        -1.5966   -0.5894   -4.0474 H         1 <0>         0.0731
     31 H12        -2.4174    0.8270    0.5959 H         1 <0>         0.4350
     32 H13        -3.1151   -0.6300    0.9205 H         1 <0>         0.4381
     33 H14         3.6751   -1.5856   -0.2667 H         1 <0>         0.4219
     34 H15         4.5054    1.5737    1.7356 H         1 <0>         0.1099
     35 H16         5.5771    2.0074    0.3830 H         1 <0>         0.1572
     36 H17        -1.8643   -0.0906    1.8477 H         1 <0>         0.4473
@<TRIPOS>BOND
     1    1    6 ar
     2    1    2 ar
     3    1   22 1
     4    2    3 ar
     5    2   23 1
     6    3   21 1
     7    3    4 ar
     8    4    5 ar
     9    4   17 1
    10    5    6 ar
    11    5   24 1
    12    6    7 1
    13    7    8 1
    14    7    9 1
    15    7   16 1
    16    9   10 1
    17    9   15 1
    18    9   11 1
    19   11   12 1
    20   11   25 1
    21   11   26 1
    22   12   13 1
    23   13   14 1
    24   13   27 1
    25   13   28 1
    26   14   15 1
    27   14   29 1
    28   14   30 1
    29   16   31 1
    30   16   32 1
    31   16   36 1
    32   17   18 am
    33   17   33 1
    34   18   19 2
    35   18   20 1
    36   20   21 1
    37   20   34 1
    38   20   35 1
