@<TRIPOS>MOLECULE
ZINC18024851
   53    56     0     0     0
SMALL
USER_CHARGES

@<TRIPOS>ATOM
      1 C1          1.0853   -0.9766   -1.7647 C.3       1 <0>         0.0243
      2 O1          1.0877   -0.1596   -0.5923 O.3       1 <0>        -0.3131
      3 C2          1.4952   -0.7428    0.5651 C.ar      1 <0>         0.1468
      4 C3          1.8900   -2.0741    0.5683 C.ar      1 <0>        -0.2085
      5 C4          2.3045   -2.6690    1.7409 C.ar      1 <0>        -0.0564
      6 C5          2.3269   -1.9320    2.9251 C.ar      1 <0>        -0.0690
      7 C6          1.9296   -0.5947    2.9182 C.ar      1 <0>        -0.0376
      8 C7          1.5213   -0.0047    1.7410 C.ar      1 <0>        -0.1493
      9 C8          2.7712   -2.5679    4.1869 C.2       1 <0>         0.2236
     10 N1          3.3526   -1.9705    5.1953 N.2       1 <0>        -0.2672
     11 N2          3.6252   -2.8913    6.2084 N.am      1 <0>        -0.4058
     12 C9          3.2073   -4.1182    5.8424 C.2       1 <0>         0.5402
     13 O2          3.2974   -5.1412    6.5003 O.2       1 <0>        -0.5322
     14 C10         2.6352   -3.9940    4.5456 C.2       1 <0>        -0.4043
     15 C11         2.0732   -4.9981    3.7806 C.2       1 <0>         0.3328
     16 N3          2.1312   -6.2792    4.2008 N.pl3     1 <0>        -0.6570
     17 C12         1.5354   -7.3438    3.3896 C.3       1 <0>         0.0812
     18 C13         1.7381   -8.6904    4.0870 C.3       1 <0>         0.0646
     19 H1          2.7962   -8.8397    4.3022 H         1 <0>         0.0933
     20 C14         1.2213   -9.8309    3.1840 C.3       1 <0>        -0.1471
     21 C15         0.5519  -10.7859    4.2096 C.3       1 <0>        -0.1564
     22 C16        -0.0017   -9.7695    5.2399 C.3       1 <0>         0.0473
     23 O3          0.9850   -8.7252    5.3049 O.3       1 <0>        -0.3725
     24 C17         4.2427   -2.5843    7.4266 C.ar      1 <0>         0.2400
     25 C18         4.4710   -3.5847    8.3627 C.ar      1 <0>        -0.1571
     26 C19         5.0804   -3.2786    9.5636 C.ar      1 <0>        -0.0240
     27 C20         5.4631   -1.9776    9.8346 C.ar      1 <0>        -0.0794
     28 C21         5.2369   -0.9792    8.9049 C.ar      1 <0>        -0.0285
     29 C22         4.6336   -1.2798    7.6995 C.ar      1 <0>        -0.1389
     30 N4          6.1161   -1.6530   11.1230 N.pl3     1 <0>         0.0394
     31 O4          6.3142   -2.5248   11.9368 O.2       1 <0>        -0.1645
     32 O5          6.4513   -0.5161   11.3612 O.3       1 <0>        -0.1639
     33 H2          0.4189   -1.8259   -1.6143 H         1 <0>         0.0581
     34 H3          0.7397   -0.3898   -2.6158 H         1 <0>         0.1034
     35 H4          2.0955   -1.3372   -1.9583 H         1 <0>         0.0585
     36 H5          1.8720   -2.6443   -0.3487 H         1 <0>         0.1360
     37 H6          2.6111   -3.7046    1.7428 H         1 <0>         0.1276
     38 H7          1.9454   -0.0213    3.8333 H         1 <0>         0.1401
     39 H8          1.2178    1.0318    1.7341 H         1 <0>         0.1396
     40 H9          1.5877   -4.7576    2.8463 H         1 <0>         0.1715
     41 H10         2.5672   -6.4951    5.0399 H         1 <0>         0.4284
     42 H11         0.4688   -7.1544    3.2683 H         1 <0>         0.0893
     43 H12         2.0142   -7.3658    2.4107 H         1 <0>         0.0959
     44 H13         0.4900   -9.4572    2.4673 H         1 <0>         0.0839
     45 H14         2.0474  -10.3267    2.6742 H         1 <0>         0.0905
     46 H15        -0.2543  -11.3557    3.7477 H         1 <0>         0.0889
     47 H16         1.2867  -11.4484    4.6672 H         1 <0>         0.0827
     48 H17        -0.9565   -9.3683    4.8999 H         1 <0>         0.0639
     49 H18        -0.1151  -10.2431    6.2151 H         1 <0>         0.0907
     50 H19         4.1720   -4.6008    8.1518 H         1 <0>         0.1755
     51 H20         5.2578   -4.0559   10.2921 H         1 <0>         0.1584
     52 H21         5.5367    0.0359    9.1197 H         1 <0>         0.1584
     53 H22         4.4615   -0.5004    6.9719 H         1 <0>         0.1577
@<TRIPOS>BOND
     1    1    2 1
     2    1   33 1
     3    1   34 1
     4    1   35 1
     5    2    3 1
     6    3    8 ar
     7    3    4 ar
     8    4    5 ar
     9    4   36 1
    10    5    6 ar
    11    5   37 1
    12    6    7 ar
    13    6    9 1
    14    7    8 ar
    15    7   38 1
    16    8   39 1
    17    9   14 1
    18    9   10 2
    19   10   11 1
    20   11   12 am
    21   11   24 1
    22   12   13 2
    23   12   14 1
    24   14   15 2
    25   15   16 1
    26   15   40 1
    27   16   17 1
    28   16   41 1
    29   17   18 1
    30   17   42 1
    31   17   43 1
    32   18   19 1
    33   18   23 1
    34   18   20 1
    35   20   21 1
    36   20   44 1
    37   20   45 1
    38   21   22 1
    39   21   46 1
    40   21   47 1
    41   22   23 1
    42   22   48 1
    43   22   49 1
    44   24   29 ar
    45   24   25 ar
    46   25   26 ar
    47   25   50 1
    48   26   27 ar
    49   26   51 1
    50   27   28 ar
    51   27   30 1
    52   28   29 ar
    53   28   52 1
    54   29   53 1
    55   30   31 2
    56   30   32 1
