@<TRIPOS>MOLECULE
ZINC12471065
   20    20     0     0     0
SMALL
USER_CHARGES
methyl 2-bromo-4-nitro-benzoate
@<TRIPOS>ATOM
      1 C1         -3.6891    2.2083    0.0315 C.3       1 <0>         0.0372
      2 O1         -2.4629    1.4307    0.0215 O.3       1 <0>        -0.3510
      3 C2         -1.3036    2.1169    0.0197 C.2       1 <0>         0.4936
      4 O2         -1.3167    3.3316    0.0264 O.2       1 <0>        -0.4589
      5 C3         -0.0169    1.3925    0.0097 C.ar      1 <0>        -0.0529
      6 C4          0.0021   -0.0041    0.0020 C.ar      1 <0>        -0.0532
      7 C5          1.2071   -0.6742   -0.0131 C.ar      1 <0>        -0.0538
      8 C6          2.3968    0.0334   -0.0206 C.ar      1 <0>        -0.0089
      9 C7          2.3867    1.4162   -0.0131 C.ar      1 <0>        -0.0386
     10 C8          1.1874    2.1008    0.0020 C.ar      1 <0>        -0.0490
     11 Br1         1.1752    3.9918    0.0116 Br        1 <0>         0.0316
     12 N1          3.6860   -0.6936   -0.0374 N.pl3     1 <0>         0.0206
     13 O3          3.6983   -1.9115   -0.0444 O.2       1 <0>        -0.1394
     14 O4          4.7346   -0.0739   -0.0440 O.3       1 <0>        -0.1418
     15 H1         -3.7250    2.8416   -0.8549 H         1 <0>         0.0688
     16 H2         -4.5463    1.5350    0.0319 H         1 <0>         0.1086
     17 H3         -3.7166    2.8320    0.9250 H         1 <0>         0.0688
     18 H4         -0.9251   -0.5579    0.0075 H         1 <0>         0.1730
     19 H5          1.2228   -1.7541   -0.0194 H         1 <0>         0.1717
     20 H6          3.3187    1.9620   -0.0191 H         1 <0>         0.1737
@<TRIPOS>BOND
     1    1    2 1
     2    1   15 1
     3    1   16 1
     4    1   17 1
     5    2    3 1
     6    3    4 2
     7    3    5 1
     8    5   10 ar
     9    5    6 ar
    10    6    7 ar
    11    6   18 1
    12    7    8 ar
    13    7   19 1
    14    8    9 ar
    15    8   12 1
    16    9   10 ar
    17    9   20 1
    18   10   11 1
    19   12   13 2
    20   12   14 1
