@<TRIPOS>MOLECULE
ZINC13189374
   59    62     0     0     0
SMALL
USER_CHARGES

@<TRIPOS>ATOM
      1 C1          0.2193   -0.6011    1.2957 C.3       1 <0>         0.0268
      2 O1          0.0247   -0.0014    0.0133 O.3       1 <0>        -0.3194
      3 C2          0.6230   -0.6055   -1.0478 C.ar      1 <0>         0.1087
      4 C3          1.3763   -1.7546   -0.8572 C.ar      1 <0>        -0.1865
      5 C4          1.9842   -2.3686   -1.9345 C.ar      1 <0>        -0.0798
      6 C5          1.8412   -1.8355   -3.2085 C.ar      1 <0>         0.1153
      7 C6          1.0871   -0.6853   -3.3985 C.ar      1 <0>        -0.1057
      8 C7          0.4751   -0.0755   -2.3212 C.ar      1 <0>        -0.1325
      9 N1          2.4581   -2.4577   -4.3019 N.am      1 <0>        -0.6703
     10 C8          2.5956   -3.7982   -4.3250 C.2       1 <0>         0.5301
     11 O2          2.1017   -4.4738   -3.4470 O.2       1 <0>        -0.5029
     12 C9          3.3631   -4.4578   -5.4417 C.3       1 <0>        -0.1307
     13 S1          3.3697   -6.2545   -5.1919 S.3       1 <0>        -0.0405
     14 C10         4.2925   -6.8717   -6.5601 C.2       1 <0>         0.2118
     15 C11         4.4837   -8.2380   -6.6749 C.2       1 <0>        -0.2129
     16 C12         5.2838   -8.7302   -7.8677 C.3       1 <0>         0.1289
     17 H1          6.1427   -9.2882   -7.4950 H         1 <0>         0.0468
     18 C13         5.7897   -7.6569   -8.8127 C.2       1 <0>        -0.3960
     19 C14         6.5037   -8.0002   -9.8969 C.2       1 <0>         0.3293
     20 C15         7.0218   -6.9602  -10.8544 C.3       1 <0>        -0.1297
     21 C16         6.0771   -5.7548  -10.8511 C.3       1 <0>        -0.1092
     22 C17         5.9687   -5.2149   -9.4226 C.3       1 <0>        -0.0760
     23 C18         5.4834   -6.3173   -8.5109 C.2       1 <0>         0.2996
     24 N2          4.7779   -6.0060   -7.4522 N.2       1 <0>        -0.6409
     25 O3          6.7622   -9.3020  -10.1325 O.3       1 <0>        -0.6301
     26 C19         4.4174   -9.6772   -8.6575 C.ar      1 <0>        -0.0037
     27 C20         3.2242   -9.2334   -9.1968 C.ar      1 <0>        -0.1252
     28 C21         2.4259  -10.0982   -9.9220 C.ar      1 <0>        -0.1160
     29 C22         2.8213  -11.4129  -10.1101 C.ar      1 <0>         0.0483
     30 C23         4.0224  -11.8594   -9.5676 C.ar      1 <0>         0.0942
     31 C24         4.8202  -10.9861   -8.8458 C.ar      1 <0>        -0.1553
     32 O4          4.4147  -13.1488   -9.7495 O.3       1 <0>        -0.3160
     33 C25         5.6592  -13.5369   -9.1641 C.3       1 <0>         0.0278
     34 O5          2.0369  -12.2650  -10.8229 O.3       1 <0>        -0.4912
     35 C26         3.9495   -9.1495   -5.7082 C.1       1 <0>         0.2862
     36 N3          3.5256   -9.8725   -4.9414 N.1       1 <0>        -0.4740
     37 H2         -0.1673   -1.6202    1.2826 H         1 <0>         0.0559
     38 H3          1.2835   -0.6192    1.5307 H         1 <0>         0.0552
     39 H4         -0.3100   -0.0215    2.0520 H         1 <0>         0.0988
     40 H5          1.4877   -2.1690    0.1339 H         1 <0>         0.1309
     41 H6          2.5709   -3.2630   -1.7859 H         1 <0>         0.1391
     42 H7          0.9758   -0.2699   -4.3892 H         1 <0>         0.1338
     43 H8         -0.1152    0.8167   -2.4695 H         1 <0>         0.1341
     44 H9          2.7861   -1.9236   -5.0422 H         1 <0>         0.4130
     45 H10         2.8889   -4.2252   -6.3952 H         1 <0>         0.1214
     46 H11         4.3883   -4.0878   -5.4459 H         1 <0>         0.1222
     47 H12         8.0173   -6.6432  -10.5436 H         1 <0>         0.0789
     48 H13         7.0703   -7.3819  -11.8583 H         1 <0>         0.0743
     49 H14         6.4734   -4.9786  -11.5058 H         1 <0>         0.0667
     50 H15         5.0917   -6.0622  -11.2011 H         1 <0>         0.0659
     51 H16         6.9472   -4.8700   -9.0883 H         1 <0>         0.0816
     52 H17         5.2618   -4.3855   -9.3994 H         1 <0>         0.0788
     53 H18         2.9150   -8.2090   -9.0509 H         1 <0>         0.1174
     54 H19         1.4940   -9.7492  -10.3416 H         1 <0>         0.1239
     55 H20         5.7547  -11.3291   -8.4270 H         1 <0>         0.1234
     56 H21         5.8523  -14.5869   -9.3841 H         1 <0>         0.0923
     57 H22         6.4615  -12.9256   -9.5774 H         1 <0>         0.0584
     58 H23         5.6130  -13.3944   -8.0845 H         1 <0>         0.0503
     59 H24         2.2308  -12.2789  -11.7701 H         1 <0>         0.3747
@<TRIPOS>BOND
     1    1    2 1
     2    1   37 1
     3    1   38 1
     4    1   39 1
     5    2    3 1
     6    3    8 ar
     7    3    4 ar
     8    4    5 ar
     9    4   40 1
    10    5    6 ar
    11    5   41 1
    12    6    7 ar
    13    6    9 1
    14    7    8 ar
    15    7   42 1
    16    8   43 1
    17    9   10 am
    18    9   44 1
    19   10   11 2
    20   10   12 1
    21   12   13 1
    22   12   45 1
    23   12   46 1
    24   13   14 1
    25   14   24 1
    26   14   15 2
    27   15   16 1
    28   15   35 1
    29   16   17 1
    30   16   18 1
    31   16   26 1
    32   18   23 1
    33   18   19 2
    34   19   20 1
    35   19   25 1
    36   20   21 1
    37   20   47 1
    38   20   48 1
    39   21   22 1
    40   21   49 1
    41   21   50 1
    42   22   23 1
    43   22   51 1
    44   22   52 1
    45   23   24 2
    46   26   31 ar
    47   26   27 ar
    48   27   28 ar
    49   27   53 1
    50   28   29 ar
    51   28   54 1
    52   29   30 ar
    53   29   34 1
    54   30   31 ar
    55   30   32 1
    56   31   55 1
    57   32   33 1
    58   33   56 1
    59   33   57 1
    60   33   58 1
    61   34   59 1
    62   35   36 3
