@<TRIPOS>MOLECULE
ZINC02355100
   43    45     0     0     0
SMALL
USER_CHARGES

@<TRIPOS>ATOM
      1 C1         -0.0184    1.5028    0.0103 C.3       1 <0>        -0.1310
      2 C2          0.0021   -0.0041    0.0020 C.2       1 <0>         0.1994
      3 C3          0.0054   -0.6635   -1.1762 C.2       1 <0>        -0.2337
      4 C4          0.0242   -2.0736   -1.1896 C.2       1 <0>         0.2238
      5 C5          0.0387   -2.7527    0.0103 C.2       1 <0>        -0.2703
      6 C6          0.0349   -2.0262    1.2080 C.2       1 <0>         0.5404
      7 O1          0.0484   -2.6143    2.2781 O.2       1 <0>        -0.5266
      8 N1          0.0224   -0.6805    1.1804 N.am      1 <0>        -0.5007
      9 C7          0.0246    0.0666    2.4407 C.3       1 <0>         0.0528
     10 C8          0.0573   -4.2563    0.0425 C.3       1 <0>         0.1059
     11 H1          0.7723   -4.5928    0.7933 H         1 <0>         0.1037
     12 C9          0.4547   -4.7980   -1.3025 C.2       1 <0>        -0.2638
     13 C10         0.4181   -4.0215   -2.4110 C.2       1 <0>         0.4335
     14 O2          0.0273   -2.7356   -2.3660 O.3       1 <0>        -0.2362
     15 N2          0.7904   -4.5628   -3.6161 N.pl3     1 <0>        -0.8279
     16 C11         0.8803   -6.1608   -1.4132 C.1       1 <0>         0.2706
     17 N3          1.2179   -7.2419   -1.5009 N.1       1 <0>        -0.4358
     18 C12        -1.3161   -4.7654    0.3972 C.ar      1 <0>        -0.0315
     19 C13        -2.3939   -4.4628   -0.4161 C.ar      1 <0>        -0.1186
     20 C14        -3.6537   -4.9255   -0.0974 C.ar      1 <0>        -0.0537
     21 C15        -3.8399   -5.7009    1.0488 C.ar      1 <0>        -0.1315
     22 C16        -2.7479   -6.0024    1.8650 C.ar      1 <0>        -0.0585
     23 C17        -1.4925   -5.5379    1.5314 C.ar      1 <0>        -0.1114
     24 C18        -5.1863   -6.1995    1.3967 C.2       1 <0>         0.5086
     25 O3         -6.1345   -5.9352    0.6849 O.2       1 <0>        -0.5059
     26 O4         -5.3625   -6.9473    2.5032 O.3       1 <0>        -0.3495
     27 C19        -6.6911   -7.3956    2.7785 C.3       1 <0>         0.0343
     28 H2          1.0042    1.8801    0.0026 H         1 <0>         0.0971
     29 H3         -0.5455    1.8639   -0.8728 H         1 <0>         0.0985
     30 H4         -0.5286    1.8543    0.9071 H         1 <0>         0.0863
     31 H5         -0.0066   -0.1129   -2.1053 H         1 <0>         0.1622
     32 H6         -1.0023    0.2381    2.7631 H         1 <0>         0.0802
     33 H7          0.5535   -0.5068    3.2020 H         1 <0>         0.0989
     34 H8          0.5244    1.0242    2.2945 H         1 <0>         0.0902
     35 H9          1.0742   -5.4891   -3.6647 H         1 <0>         0.4274
     36 H10         0.7695   -4.0192   -4.4191 H         1 <0>         0.4127
     37 H11        -2.2485   -3.8627   -1.3022 H         1 <0>         0.1239
     38 H12        -4.4942   -4.6884   -0.7328 H         1 <0>         0.1365
     39 H13        -2.8850   -6.6013    2.7532 H         1 <0>         0.1389
     40 H14        -0.6462   -5.7740    2.1595 H         1 <0>         0.1336
     41 H15        -7.0463   -8.0093    1.9507 H         1 <0>         0.0616
     42 H16        -6.6929   -7.9856    3.6951 H         1 <0>         0.1041
     43 H17        -7.3475   -6.5339    2.8998 H         1 <0>         0.0615
@<TRIPOS>BOND
     1    1    2 1
     2    1   28 1
     3    1   29 1
     4    1   30 1
     5    2    8 1
     6    2    3 2
     7    3    4 1
     8    3   31 1
     9    4   14 1
    10    4    5 2
    11    5    6 1
    12    5   10 1
    13    6    7 2
    14    6    8 am
    15    8    9 1
    16    9   32 1
    17    9   33 1
    18    9   34 1
    19   10   11 1
    20   10   12 1
    21   10   18 1
    22   12   13 2
    23   12   16 1
    24   13   14 1
    25   13   15 1
    26   15   35 1
    27   15   36 1
    28   16   17 3
    29   18   23 ar
    30   18   19 ar
    31   19   20 ar
    32   19   37 1
    33   20   21 ar
    34   20   38 1
    35   21   22 ar
    36   21   24 1
    37   22   23 ar
    38   22   39 1
    39   23   40 1
    40   24   25 2
    41   24   26 1
    42   26   27 1
    43   27   41 1
    44   27   42 1
    45   27   43 1
