@<TRIPOS>MOLECULE
ZINC08893158
   63    66     0     0     0
SMALL
USER_CHARGES
ethyl 9-carbamoyl-8-[1-(p-tolylsulfonyl)pyrrolidin-2-yl]carbonylamino-7-thia-4-azabicyclo[4.3.0]nona-8,10-diene-4-carboxylate
@<TRIPOS>ATOM
      1 C1         13.8340   -0.7267    4.7916 C.3       1 <0>        -0.1542
      2 C2         14.3205   -1.0902    3.3873 C.3       1 <0>         0.0822
      3 O1         13.5457   -0.3574    2.4019 O.3       1 <0>        -0.3687
      4 C3         13.8505   -0.5653    1.1070 C.2       1 <0>         0.6578
      5 O2         14.7396   -1.3379    0.8086 O.2       1 <0>        -0.5684
      6 N1         13.1694    0.0835    0.1418 N.am      1 <0>        -0.5939
      7 C4         13.4794   -0.1228   -1.2810 C.3       1 <0>         0.1302
      8 C5         12.2780   -0.7620   -1.9798 C.3       1 <0>        -0.0787
      9 C6         11.0138   -0.0023   -1.5983 C.2       1 <0>        -0.0509
     10 C7         10.9696    0.7792   -0.4973 C.2       1 <0>        -0.2479
     11 S1          9.3269    1.4364   -0.4703 S.3       1 <0>         0.2723
     12 C8          8.7004    0.6799   -1.8978 C.2       1 <0>         0.0800
     13 C9          9.7795   -0.0572   -2.3643 C.2       1 <0>        -0.2333
     14 C10         9.6783   -0.8625   -3.5854 C.2       1 <0>         0.5853
     15 O3          9.9544   -0.3702   -4.6637 O.2       1 <0>        -0.5321
     16 N2          9.2797   -2.1480   -3.5137 N.am      1 <0>        -0.8476
     17 N3          7.4308    0.7893   -2.4445 N.am      1 <0>        -0.6175
     18 C11         6.5028    1.5607   -1.8443 C.2       1 <0>         0.4915
     19 O4          6.7782    2.1593   -0.8261 O.2       1 <0>        -0.4647
     20 C12         5.1230    1.6796   -2.4385 C.3       1 <0>         0.1438
     21 H1          4.6585    0.6956   -2.5021 H         1 <0>         0.1116
     22 C13         5.2066    2.3096   -3.8449 C.3       1 <0>        -0.1249
     23 C14         3.9628    3.2361   -3.8875 C.3       1 <0>        -0.1269
     24 C15         3.8949    3.7330   -2.4218 C.3       1 <0>         0.1165
     25 N4          4.2969    2.5699   -1.6100 N.pl3     1 <0>        -0.9921
     26 S2          3.8911    2.3124   -0.0252 S.o2      1 <0>         2.7053
     27 O5          3.6079    3.5878    0.5339 O.2       1 <0>        -0.9449
     28 O6          4.8824    1.4479    0.5125 O.2       1 <0>        -0.9296
     29 C16         2.3773    1.4107   -0.0150 C.ar      1 <0>        -0.6890
     30 C17         1.1710    2.0855    0.0021 C.ar      1 <0>        -0.0160
     31 C18        -0.0167    1.3781    0.0096 C.ar      1 <0>        -0.1411
     32 C19         0.0021   -0.0041    0.0020 C.ar      1 <0>        -0.0269
     33 C20         1.2084   -0.6789   -0.0132 C.ar      1 <0>        -0.1418
     34 C21         2.3960    0.0285   -0.0212 C.ar      1 <0>        -0.0171
     35 C22        -1.2926   -0.7753    0.0108 C.3       1 <0>        -0.1268
     36 C23        12.0846    1.0284    0.4732 C.3       1 <0>         0.2040
     37 H2         13.9592    0.3439    4.9538 H         1 <0>         0.0677
     38 H3         12.7804   -0.9882    4.8901 H         1 <0>         0.0673
     39 H4         14.4156   -1.2767    5.5314 H         1 <0>         0.0832
     40 H5         14.1952   -2.1607    3.2251 H         1 <0>         0.0708
     41 H6         15.3741   -0.8286    3.2888 H         1 <0>         0.0716
     42 H7         14.3444   -0.7797   -1.3725 H         1 <0>         0.1052
     43 H8         13.7018    0.8373   -1.7467 H         1 <0>         0.0833
     44 H9         12.1860   -1.8022   -1.6673 H         1 <0>         0.0838
     45 H10        12.4177   -0.7173   -3.0598 H         1 <0>         0.0928
     46 H11         9.0597   -2.5403   -2.6543 H         1 <0>         0.4040
     47 H12         9.2128   -2.6808   -4.3215 H         1 <0>         0.4037
     48 H13         7.2105    0.3106   -3.2588 H         1 <0>         0.4198
     49 H14         5.1434    1.5434   -4.6176 H         1 <0>         0.0974
     50 H15         6.1233    2.8894   -3.9529 H         1 <0>         0.0870
     51 H16         3.0665    2.6749   -4.1517 H         1 <0>         0.0837
     52 H17         4.1176    4.0675   -4.5751 H         1 <0>         0.0936
     53 H18         2.8787    4.0375   -2.1712 H         1 <0>         0.0847
     54 H19         4.5871    4.5607   -2.2676 H         1 <0>         0.0795
     55 H20         1.1563    3.1654    0.0077 H         1 <0>         0.1398
     56 H21        -0.9592    1.9054    0.0170 H         1 <0>         0.1344
     57 H22         1.2231   -1.7588   -0.0184 H         1 <0>         0.1336
     58 H23         3.3386   -0.4987   -0.0327 H         1 <0>         0.1377
     59 H24        -1.6150   -0.9557   -1.0147 H         1 <0>         0.0805
     60 H25        -1.1443   -1.7285    0.5181 H         1 <0>         0.0740
     61 H26        -2.0550   -0.1993    0.5353 H         1 <0>         0.0743
     62 H27        11.7370    0.8526    1.4912 H         1 <0>         0.1083
     63 H28        12.4415    2.0535    0.3735 H         1 <0>         0.0928
@<TRIPOS>BOND
     1    1    2 1
     2    1   37 1
     3    1   38 1
     4    1   39 1
     5    2    3 1
     6    2   40 1
     7    2   41 1
     8    3    4 1
     9    4    5 2
    10    4    6 am
    11    6   36 1
    12    6    7 1
    13    7    8 1
    14    7   42 1
    15    7   43 1
    16    8    9 1
    17    8   44 1
    18    8   45 1
    19    9   13 1
    20    9   10 2
    21   10   11 1
    22   10   36 1
    23   11   12 1
    24   12   13 2
    25   12   17 1
    26   13   14 1
    27   14   15 2
    28   14   16 am
    29   16   46 1
    30   16   47 1
    31   17   18 am
    32   17   48 1
    33   18   19 2
    34   18   20 1
    35   20   21 1
    36   20   25 1
    37   20   22 1
    38   22   23 1
    39   22   49 1
    40   22   50 1
    41   23   24 1
    42   23   51 1
    43   23   52 1
    44   24   25 1
    45   24   53 1
    46   24   54 1
    47   25   26 1
    48   26   27 2
    49   26   28 2
    50   26   29 1
    51   29   34 ar
    52   29   30 ar
    53   30   31 ar
    54   30   55 1
    55   31   32 ar
    56   31   56 1
    57   32   33 ar
    58   32   35 1
    59   33   34 ar
    60   33   57 1
    61   34   58 1
    62   35   59 1
    63   35   60 1
    64   35   61 1
    65   36   62 1
    66   36   63 1
