@<TRIPOS>MOLECULE
ZINC08598343
   60    62     0     0     0
SMALL
USER_CHARGES

@<TRIPOS>ATOM
      1 C1         -0.0081    1.4585    0.0130 C.3       1 <0>         0.0835
      2 N1          0.0023   -0.0064    0.0009 N.pl3     1 <0>        -0.9833
      3 C2          0.0238   -0.7492    1.2634 C.3       1 <0>         0.1081
      4 C3         -1.3841   -0.9074    1.7772 C.2       1 <0>         0.4962
      5 O1         -2.3139   -0.4451    1.1505 O.2       1 <0>        -0.5006
      6 N2         -1.6099   -1.5626    2.9332 N.am      1 <0>        -0.6710
      7 C4         -2.9062   -1.6264    3.4604 C.ar      1 <0>         0.2180
      8 C5         -3.0983   -1.5953    4.8348 C.ar      1 <0>        -0.2598
      9 C6         -4.3805   -1.6584    5.3573 C.ar      1 <0>         0.1675
     10 C7         -5.4741   -1.7528    4.5048 C.ar      1 <0>         0.0147
     11 C8         -5.2807   -1.7839    3.1288 C.ar      1 <0>         0.1680
     12 C9         -3.9982   -1.7150    2.6079 C.ar      1 <0>        -0.2346
     13 O2         -6.3500   -1.8767    2.2936 O.3       1 <0>        -0.2992
     14 C10        -6.0773   -1.9036    0.8911 C.3       1 <0>         0.0229
     15 O3         -6.7340   -1.8153    5.0172 O.3       1 <0>        -0.3109
     16 C11        -7.4133   -0.5749    5.2220 C.3       1 <0>         0.0345
     17 O4         -4.5685   -1.6284    6.7039 O.3       1 <0>        -0.2991
     18 C12        -3.3996   -1.5309    7.5201 C.3       1 <0>         0.0242
     19 S1         -0.0103   -0.8226   -1.4399 S.o2      1 <0>         2.6951
     20 O5         -0.5484   -2.1103   -1.1726 O.2       1 <0>        -0.9489
     21 O6         -0.5798    0.0568   -2.3999 O.2       1 <0>        -0.9439
     22 C13         1.6688   -1.0672   -1.9147 C.ar      1 <0>        -0.7028
     23 C14         2.3203   -0.1220   -2.6865 C.ar      1 <0>         0.0099
     24 C15         3.6302   -0.3260   -3.0446 C.ar      1 <0>        -0.1821
     25 C16         4.3283   -1.4801   -2.6484 C.ar      1 <0>         0.2357
     26 C17         3.6728   -2.4204   -1.8832 C.ar      1 <0>        -0.1358
     27 C18         2.3449   -2.1972   -1.5162 C.ar      1 <0>         0.0161
     28 C19         4.2683   -3.7012   -1.3959 C.3       1 <0>        -0.0839
     29 C20         5.2323   -4.3670   -2.3276 C.3       1 <0>        -0.1237
     30 C21         6.5987   -3.7252   -2.3382 C.3       1 <0>        -0.1386
     31 C22         6.5940   -2.4213   -3.0521 C.2       1 <0>         0.5275
     32 O7          7.5896   -2.1513   -3.6899 O.2       1 <0>        -0.5322
     33 N3          5.6373   -1.5370   -3.0681 N.am      1 <0>        -0.6489
     34 H1          1.0168    1.8293    0.0029 H         1 <0>         0.0613
     35 H2         -0.5359    1.8254   -0.8673 H         1 <0>         0.0888
     36 H3         -0.5131    1.8108    0.9125 H         1 <0>         0.0794
     37 H4          0.4631   -1.7331    1.0987 H         1 <0>         0.1169
     38 H5          0.6187   -0.2037    1.9959 H         1 <0>         0.1209
     39 H6         -0.8749   -1.9899    3.4001 H         1 <0>         0.4151
     40 H7         -2.2484   -1.5223    5.4972 H         1 <0>         0.1390
     41 H8         -3.8480   -1.7343    1.5386 H         1 <0>         0.1552
     42 H9         -5.4492   -2.7639    0.6596 H         1 <0>         0.0586
     43 H10        -7.0147   -1.9793    0.3401 H         1 <0>         0.1043
     44 H11        -5.5600   -0.9882    0.6040 H         1 <0>         0.0621
     45 H12        -8.4043   -0.7669    5.6332 H         1 <0>         0.0925
     46 H13        -6.8439    0.0405    5.9187 H         1 <0>         0.0434
     47 H14        -7.5097   -0.0520    4.2705 H         1 <0>         0.0442
     48 H15        -2.7536   -2.3889    7.3336 H         1 <0>         0.0583
     49 H16        -2.8634   -0.6132    7.2787 H         1 <0>         0.0566
     50 H17        -3.6901   -1.5164    8.5706 H         1 <0>         0.1038
     51 H18         1.8021    0.7702   -3.0057 H         1 <0>         0.1481
     52 H19         4.1353    0.4167   -3.6443 H         1 <0>         0.1394
     53 H20         1.8350   -2.9304   -0.9089 H         1 <0>         0.1435
     54 H21         4.7846   -3.5014   -0.4569 H         1 <0>         0.0800
     55 H22         3.4560   -4.3984   -1.1906 H         1 <0>         0.0879
     56 H23         5.3391   -5.4108   -2.0322 H         1 <0>         0.0902
     57 H24         4.8226   -4.3328   -3.3370 H         1 <0>         0.0685
     58 H25         6.9236   -3.5655   -1.3101 H         1 <0>         0.1053
     59 H26         7.3022   -4.3966   -2.8307 H         1 <0>         0.1122
     60 H27         5.9202   -0.7066   -3.4819 H         1 <0>         0.4015
@<TRIPOS>BOND
     1    1    2 1
     2    1   34 1
     3    1   35 1
     4    1   36 1
     5    2    3 1
     6    2   19 1
     7    3    4 1
     8    3   37 1
     9    3   38 1
    10    4    5 2
    11    4    6 am
    12    6    7 1
    13    6   39 1
    14    7   12 ar
    15    7    8 ar
    16    8    9 ar
    17    8   40 1
    18    9   10 ar
    19    9   17 1
    20   10   11 ar
    21   10   15 1
    22   11   12 ar
    23   11   13 1
    24   12   41 1
    25   13   14 1
    26   14   42 1
    27   14   43 1
    28   14   44 1
    29   15   16 1
    30   16   45 1
    31   16   46 1
    32   16   47 1
    33   17   18 1
    34   18   48 1
    35   18   49 1
    36   18   50 1
    37   19   20 2
    38   19   21 2
    39   19   22 1
    40   22   27 ar
    41   22   23 ar
    42   23   24 ar
    43   23   51 1
    44   24   25 ar
    45   24   52 1
    46   25   33 1
    47   25   26 ar
    48   26   27 ar
    49   26   28 1
    50   27   53 1
    51   28   29 1
    52   28   54 1
    53   28   55 1
    54   29   30 1
    55   29   56 1
    56   29   57 1
    57   30   31 1
    58   30   58 1
    59   30   59 1
    60   31   32 2
    61   31   33 am
    62   33   60 1
