@<TRIPOS>MOLECULE
ZINC59914162
   53    55     0     0     0
SMALL
USER_CHARGES

@<TRIPOS>ATOM
      1 C1         -1.2646    1.1833    0.1814 C.3       1 <0>        -0.1188
      2 C2         -0.5841   -0.1578    0.0844 C.ar      1 <0>        -0.1027
      3 C3         -0.5694   -0.8401   -1.1166 C.ar      1 <0>        -0.0903
      4 C4          0.0545   -2.0704   -1.2070 C.ar      1 <0>        -0.1179
      5 C5          0.6667   -2.6224   -0.0950 C.ar      1 <0>        -0.0228
      6 C6          0.6552   -1.9443    1.1092 C.ar      1 <0>        -0.1088
      7 C7          0.0336   -0.7058    1.2008 C.ar      1 <0>         0.1533
      8 N1          0.0251   -0.0140    2.4170 N.am      1 <0>        -0.6630
      9 C8         -0.0564   -0.6934    3.5782 C.2       1 <0>         0.5380
     10 O1         -0.0401   -1.9061    3.5737 O.2       1 <0>        -0.4979
     11 C9         -0.1678    0.0539    4.8821 C.3       1 <0>        -0.1598
     12 S1         -0.2589   -1.1313    6.2524 S.3       1 <0>         0.1136
     13 C10        -0.3840   -0.1157    7.6868 C.2       1 <0>         0.2134
     14 N2         -0.4082    1.1954    7.7032 N.2       1 <0>        -0.3076
     15 N3         -0.5152    1.6098    9.0373 N.2       1 <0>        -0.3069
     16 C11        -0.5529    0.5387    9.7924 C.2       1 <0>         0.4709
     17 N4         -0.4786   -0.5560    8.9767 N.pl3     1 <0>        -0.3465
     18 N5         -0.4936   -1.8609    9.3806 N.3       1 <0>        -0.5885
     19 N6         -0.6559    0.5194   11.1756 N.pl3     1 <0>        -0.5568
     20 N7         -0.7310    1.7227   11.8893 N.2       1 <0>        -0.2136
     21 C12        -0.8274    1.7046   13.1833 C.2       1 <0>         0.1523
     22 C13        -0.9064    2.9724   13.9353 C.2       1 <0>        -0.2075
     23 C14        -0.8950    4.2728   13.3867 C.2       1 <0>         0.0955
     24 N8         -0.9816    5.1291   14.3688 N.2       1 <0>        -0.2955
     25 N9         -1.0517    4.4258   15.5768 N.pl3     1 <0>        -0.3621
     26 C15        -1.0111    3.1060   15.3027 C.2       1 <0>         0.0995
     27 C16        -1.1571    5.0216   16.9110 C.3       1 <0>         0.1353
     28 C17        -0.0076    6.0092   17.1208 C.3       1 <0>         0.0500
     29 O2         -0.1104    6.5904   18.4222 O.3       1 <0>        -0.3906
     30 C18         0.9213    7.5329   18.7210 C.3       1 <0>         0.0335
     31 Cl1         1.4491   -4.1676   -0.2130 Cl        1 <0>        -0.0630
     32 H1         -0.5493    1.9715   -0.0535 H         1 <0>         0.0762
     33 H2         -2.0933    1.2222   -0.5256 H         1 <0>         0.0760
     34 H3         -1.6433    1.3262    1.1934 H         1 <0>         0.0670
     35 H4         -1.0462   -0.4120   -1.9860 H         1 <0>         0.1380
     36 H5          0.0639   -2.6022   -2.1470 H         1 <0>         0.1361
     37 H6          1.1323   -2.3753    1.9770 H         1 <0>         0.1521
     38 H7          0.0778    0.9545    2.4244 H         1 <0>         0.4176
     39 H8          0.7065    0.6919    5.0111 H         1 <0>         0.1314
     40 H9         -1.0679    0.6685    4.8729 H         1 <0>         0.1322
     41 H10         0.4415   -2.1944    9.5608 H         1 <0>         0.3652
     42 H11        -1.0831   -1.9819   10.1905 H         1 <0>         0.3701
     43 H12        -0.6761   -0.3271   11.6487 H         1 <0>         0.3890
     44 H13        -0.8498    0.7621   13.7100 H         1 <0>         0.1195
     45 H14        -0.8262    4.5172   12.3369 H         1 <0>         0.1947
     46 H15        -1.0504    2.3018   16.0226 H         1 <0>         0.1861
     47 H16        -2.1081    5.5467   17.0003 H         1 <0>         0.0998
     48 H17        -1.1035    4.2362   17.6649 H         1 <0>         0.1091
     49 H18         0.9434    5.4842   17.0315 H         1 <0>         0.0557
     50 H19        -0.0612    6.7946   16.3668 H         1 <0>         0.0678
     51 H20         1.8916    7.0394   18.6649 H         1 <0>         0.0441
     52 H21         0.8870    8.3499   18.0003 H         1 <0>         0.0459
     53 H22         0.7723    7.9283   19.7258 H         1 <0>         0.0919
@<TRIPOS>BOND
     1    1    2 1
     2    1   32 1
     3    1   33 1
     4    1   34 1
     5    2    7 ar
     6    2    3 ar
     7    3    4 ar
     8    3   35 1
     9    4    5 ar
    10    4   36 1
    11    5    6 ar
    12    5   31 1
    13    6    7 ar
    14    6   37 1
    15    7    8 1
    16    8    9 am
    17    8   38 1
    18    9   10 2
    19    9   11 1
    20   11   12 1
    21   11   39 1
    22   11   40 1
    23   12   13 1
    24   13   17 1
    25   13   14 2
    26   14   15 1
    27   15   16 2
    28   16   17 1
    29   16   19 1
    30   17   18 1
    31   18   41 1
    32   18   42 1
    33   19   20 1
    34   19   43 1
    35   20   21 2
    36   21   22 1
    37   21   44 1
    38   22   26 2
    39   22   23 1
    40   23   24 2
    41   23   45 1
    42   24   25 1
    43   25   26 1
    44   25   27 1
    45   26   46 1
    46   27   28 1
    47   27   47 1
    48   27   48 1
    49   28   29 1
    50   28   49 1
    51   28   50 1
    52   29   30 1
    53   30   51 1
    54   30   52 1
    55   30   53 1
