@<TRIPOS>MOLECULE
ZINC16022085
   58    61     0     0     0
SMALL
USER_CHARGES

@<TRIPOS>ATOM
      1 C1         -0.0187    1.5258    0.0104 C.3       1 <0>        -0.1520
      2 C2          0.0021   -0.0041    0.0020 C.3       1 <0>        -0.1208
      3 C3          0.7421   -0.5109    1.2415 C.3       1 <0>        -0.1334
      4 C4          0.7628   -2.0407    1.2331 C.3       1 <0>         0.0982
      5 N1          1.4714   -2.5260    2.4200 N.am      1 <0>        -0.5680
      6 C5          2.7914   -2.7441    2.4359 C.2       1 <0>         0.5256
      7 O1          3.5403   -2.5763    1.4975 O.2       1 <0>        -0.4555
      8 C6          3.2035   -3.2320    3.8059 C.3       1 <0>        -0.1533
      9 H1          3.9471   -2.5875    4.2747 H         1 <0>         0.1472
     10 C7          3.6691   -4.6999    3.7068 C.3       1 <0>         0.0861
     11 H2          4.3646   -4.9324    4.5133 H         1 <0>         0.1203
     12 N2          2.4267   -5.5051    3.8470 N.3       1 <0>        -0.6221
     13 C8          1.6409   -4.7828    4.8644 C.3       1 <0>         0.1264
     14 C9          1.8624   -3.2742    4.5903 C.3       1 <0>        -0.1355
     15 H3          1.8839   -2.6716    5.4984 H         1 <0>         0.1473
     16 C10         0.8522   -2.7820    3.5780 C.2       1 <0>         0.5267
     17 O2         -0.3346   -2.6439    3.7830 O.2       1 <0>        -0.4472
     18 C11         2.0676   -5.1529    6.2564 C.ar      1 <0>        -0.1220
     19 C12         3.2631   -5.0715    6.9348 C.ar      1 <0>        -0.0524
     20 C13         3.3462   -5.5049    8.2460 C.ar      1 <0>        -0.1360
     21 C14         2.2261   -6.0197    8.8729 C.ar      1 <0>        -0.0434
     22 C15         1.0265   -6.1036    8.1973 C.ar      1 <0>        -0.1040
     23 C16         0.9340   -5.6695    6.8770 C.ar      1 <0>         0.1584
     24 N3         -0.1493   -5.6515    5.9960 N.am      1 <0>        -0.6539
     25 C17         0.1828   -5.1462    4.7923 C.2       1 <0>         0.5381
     26 O3         -0.5512   -5.0100    3.8364 O.2       1 <0>        -0.4673
     27 C18        -0.1879   -6.6662    8.8899 C.3       1 <0>        -0.1196
     28 C19         2.3168   -6.4920   10.3011 C.3       1 <0>        -0.1218
     29 C20         4.3242   -4.9600    2.3489 C.3       1 <0>        -0.1068
     30 C21         4.8885   -6.3818    2.3188 C.3       1 <0>        -0.1376
     31 C22         5.5338   -6.6380    0.9812 C.2       1 <0>         0.5120
     32 O4          5.5416   -5.7689    0.1353 O.2       1 <0>        -0.5379
     33 N4          6.1022   -7.8329    0.7250 N.am      1 <0>        -0.8590
     34 H4          1.0039    1.9031    0.0027 H         1 <0>         0.0547
     35 H5         -0.5459    1.8868   -0.8726 H         1 <0>         0.0576
     36 H6         -0.5289    1.8773    0.9072 H         1 <0>         0.0541
     37 H7         -1.0205   -0.3814    0.0098 H         1 <0>         0.0659
     38 H8          0.5123   -0.3556   -0.8948 H         1 <0>         0.0666
     39 H9          1.7647   -0.1336    1.2338 H         1 <0>         0.0686
     40 H10         0.2319   -0.1594    2.1383 H         1 <0>         0.0674
     41 H11        -0.2598   -2.4180    1.2409 H         1 <0>         0.0960
     42 H12         1.2730   -2.3923    0.3363 H         1 <0>         0.0958
     43 H13         1.9270   -5.5541    2.9718 H         1 <0>         0.3498
     44 H14         4.1365   -4.6694    6.4430 H         1 <0>         0.1287
     45 H15         4.2835   -5.4416    8.7787 H         1 <0>         0.1326
     46 H16        -1.0379   -5.9665    6.2243 H         1 <0>         0.4172
     47 H17        -0.7306   -5.8601    9.3837 H         1 <0>         0.0736
     48 H18        -0.8362   -7.1441    8.1555 H         1 <0>         0.0608
     49 H19         0.1247   -7.4013    9.6315 H         1 <0>         0.0783
     50 H20         2.0889   -5.6642   10.9726 H         1 <0>         0.0763
     51 H21         1.6019   -7.2986   10.4631 H         1 <0>         0.0735
     52 H22         3.3251   -6.8546   10.5005 H         1 <0>         0.0715
     53 H23         3.5812   -4.8472    1.5594 H         1 <0>         0.0750
     54 H24         5.1320   -4.2451    2.1923 H         1 <0>         0.0969
     55 H25         5.6316   -6.4946    3.1082 H         1 <0>         0.0980
     56 H26         4.0807   -7.0967    2.4753 H         1 <0>         0.1016
     57 H27         6.0960   -8.5280    1.4016 H         1 <0>         0.4016
     58 H28         6.5176   -7.9977   -0.1359 H         1 <0>         0.4012
@<TRIPOS>BOND
     1    1    2 1
     2    1   34 1
     3    1   35 1
     4    1   36 1
     5    2    3 1
     6    2   37 1
     7    2   38 1
     8    3    4 1
     9    3   39 1
    10    3   40 1
    11    4    5 1
    12    4   41 1
    13    4   42 1
    14    5   16 am
    15    5    6 am
    16    6    7 2
    17    6    8 1
    18    8    9 1
    19    8   14 1
    20    8   10 1
    21   10   11 1
    22   10   12 1
    23   10   29 1
    24   12   13 1
    25   12   43 1
    26   13   25 1
    27   13   14 1
    28   13   18 1
    29   14   15 1
    30   14   16 1
    31   16   17 2
    32   18   23 ar
    33   18   19 ar
    34   19   20 ar
    35   19   44 1
    36   20   21 ar
    37   20   45 1
    38   21   22 ar
    39   21   28 1
    40   22   23 ar
    41   22   27 1
    42   23   24 1
    43   24   25 am
    44   24   46 1
    45   25   26 2
    46   27   47 1
    47   27   48 1
    48   27   49 1
    49   28   50 1
    50   28   51 1
    51   28   52 1
    52   29   30 1
    53   29   53 1
    54   29   54 1
    55   30   31 1
    56   30   55 1
    57   30   56 1
    58   31   32 2
    59   31   33 am
    60   33   57 1
    61   33   58 1
