@<TRIPOS>MOLECULE
ZINC10514753
   39    40     0     0     0
SMALL
USER_CHARGES

@<TRIPOS>ATOM
      1 C1         -0.9152    0.8786    0.4529 C.3       1 <0>        -0.1540
      2 C2          0.0596   -0.1456   -0.0685 C.2       1 <0>         0.3576
      3 C3          1.2176   -0.4177    0.6344 C.2       1 <0>        -0.3454
      4 C4          2.2547   -1.3140    0.0916 C.2       1 <0>         0.5571
      5 O1          2.1179   -1.8412   -0.9964 O.2       1 <0>        -0.4601
      6 N1          3.3597   -1.5333    0.8336 N.am      1 <0>        -0.6157
      7 C5          3.5233   -0.9590    2.0336 C.2       1 <0>         0.5488
      8 S1          4.9584   -1.2957    2.9043 S.2       1 <0>        -0.5110
      9 N2          2.6234   -0.1349    2.5881 N.am      1 <0>        -0.6150
     10 C6          1.4732    0.1804    1.9575 C.2       1 <0>         0.5672
     11 O2          0.6665    0.9341    2.4690 O.2       1 <0>        -0.4698
     12 N3         -0.1987   -0.7976   -1.2229 N.pl3     1 <0>        -0.6545
     13 C7         -0.3345   -0.0839   -2.4097 C.ar      1 <0>         0.2515
     14 C8         -0.2853    1.3041   -2.3990 C.ar      1 <0>        -0.1941
     15 C9         -0.4198    2.0098   -3.5774 C.ar      1 <0>        -0.0402
     16 C10        -0.6048    1.3423   -4.7775 C.ar      1 <0>        -0.1597
     17 C11        -0.6566   -0.0345   -4.8074 C.ar      1 <0>        -0.0416
     18 C12        -0.5159   -0.7629   -3.6240 C.ar      1 <0>        -0.1925
     19 C13        -0.5644   -2.2371   -3.6498 C.2       1 <0>         0.5835
     20 O3         -0.5558   -2.8640   -2.6080 O.2       1 <0>        -0.5324
     21 N4         -0.6181   -2.8891   -4.8281 N.am      1 <0>        -0.7228
     22 C14        -0.6662   -4.3531   -4.8537 C.3       1 <0>         0.0773
     23 C15        -0.7221   -4.8362   -6.3044 C.3       1 <0>         0.4486
     24 F1          0.4166   -4.3950   -6.9870 F         1 <0>        -0.1764
     25 F2         -0.7680   -6.2343   -6.3288 F         1 <0>        -0.1693
     26 F3         -1.8659   -4.3212   -6.9237 F         1 <0>        -0.1770
     27 H1         -0.3985    1.8256    0.6089 H         1 <0>         0.1091
     28 H2         -1.7180    1.0177   -0.2713 H         1 <0>         0.0865
     29 H3         -1.3342    0.5333    1.3980 H         1 <0>         0.1166
     30 H4          4.0517   -2.1204    0.4910 H         1 <0>         0.4475
     31 H5          2.8052    0.2469    3.4610 H         1 <0>         0.4489
     32 H6         -0.2895   -1.7633   -1.2246 H         1 <0>         0.4401
     33 H7         -0.1421    1.8316   -1.4675 H         1 <0>         0.1372
     34 H8         -0.3809    3.0891   -3.5640 H         1 <0>         0.1370
     35 H9         -0.7093    1.9039   -5.6941 H         1 <0>         0.1356
     36 H10        -0.8014   -0.5498   -5.7454 H         1 <0>         0.1315
     37 H11        -0.6250   -2.3890   -5.6592 H         1 <0>         0.4101
     38 H12         0.2249   -4.7544   -4.3712 H         1 <0>         0.1201
     39 H13        -1.5534   -4.6968   -4.3219 H         1 <0>         0.1196
@<TRIPOS>BOND
     1    1    2 1
     2    1   27 1
     3    1   28 1
     4    1   29 1
     5    2    3 2
     6    2   12 1
     7    3   10 1
     8    3    4 1
     9    4    5 2
    10    4    6 am
    11    6    7 1
    12    6   30 1
    13    7    8 2
    14    7    9 1
    15    9   10 am
    16    9   31 1
    17   10   11 2
    18   12   13 1
    19   12   32 1
    20   13   18 ar
    21   13   14 ar
    22   14   15 ar
    23   14   33 1
    24   15   16 ar
    25   15   34 1
    26   16   17 ar
    27   16   35 1
    28   17   18 ar
    29   17   36 1
    30   18   19 1
    31   19   20 2
    32   19   21 am
    33   21   22 1
    34   21   37 1
    35   22   23 1
    36   22   38 1
    37   22   39 1
    38   23   24 1
    39   23   25 1
    40   23   26 1
