@<TRIPOS>MOLECULE
ZINC48695486
   38    39     0     0     0
SMALL
USER_CHARGES

@<TRIPOS>ATOM
      1 C1         -1.2661    1.1826    0.1820 C.3       1 <0>        -0.1161
      2 C2         -0.5848   -0.1581    0.0847 C.ar      1 <0>        -0.0846
      3 C3         -0.5705   -0.8405   -1.1163 C.ar      1 <0>        -0.1370
      4 C4          0.0552   -2.0723   -1.2062 C.ar      1 <0>         0.0872
      5 C5          0.6674   -2.6230   -0.0927 C.ar      1 <0>        -0.1400
      6 C6          0.6553   -1.9440    1.1097 C.ar      1 <0>        -0.0870
      7 C7          0.0336   -0.7057    1.2005 C.ar      1 <0>         0.1511
      8 N1          0.0252   -0.0127    2.4176 N.am      1 <0>        -0.6830
      9 C8         -0.0563   -0.6917    3.5790 C.2       1 <0>         0.7041
     10 O1         -0.0401   -1.9075    3.5749 O.2       1 <0>        -0.5697
     11 N2         -0.1559   -0.0230    4.7450 N.am      1 <0>        -0.7414
     12 C9         -0.2444   -0.7610    6.0074 C.3       1 <0>         0.1438
     13 C10        -0.3479    0.2280    7.1702 C.3       1 <0>        -0.1359
     14 H1          0.4901    0.9240    7.1320 H         1 <0>         0.0882
     15 C11        -0.3181   -0.5369    8.4970 C.3       1 <0>        -0.1155
     16 C12        -0.5005    0.4552    9.6498 C.3       1 <0>        -0.1560
     17 C13        -1.8105    1.2219    9.4504 C.3       1 <0>         0.0571
     18 O2         -1.7850    1.8850    8.1848 O.3       1 <0>        -0.3807
     19 C14        -1.6631    1.0046    7.0657 C.3       1 <0>         0.0649
     20 F1          0.0682   -2.7381   -2.3817 F         1 <0>        -0.1394
     21 H2         -0.5514    1.9712   -0.0533 H         1 <0>         0.0760
     22 H3         -2.0952    1.2209   -0.5245 H         1 <0>         0.0755
     23 H4         -1.6444    1.3252    1.1943 H         1 <0>         0.0669
     24 H5         -1.0479   -0.4130   -1.9856 H         1 <0>         0.1394
     25 H6          1.1544   -3.5843   -0.1647 H         1 <0>         0.1390
     26 H7          1.1325   -2.3740    1.9779 H         1 <0>         0.1514
     27 H8          0.0780    0.9558    2.4247 H         1 <0>         0.4081
     28 H9         -0.1688    0.9469    4.7482 H         1 <0>         0.3986
     29 H10        -1.1278   -1.3995    5.9938 H         1 <0>         0.0721
     30 H11         0.6467   -1.3762    6.1319 H         1 <0>         0.0744
     31 H12        -1.1259   -1.2685    8.5143 H         1 <0>         0.0696
     32 H13         0.6396   -1.0465    8.6026 H         1 <0>         0.0739
     33 H14        -0.5359   -0.0870   10.5947 H         1 <0>         0.0779
     34 H15         0.3338    1.1566    9.6622 H         1 <0>         0.0732
     35 H16        -2.6478    0.5245    9.4786 H         1 <0>         0.0521
     36 H17        -1.9246    1.9593   10.2450 H         1 <0>         0.0959
     37 H18        -1.6704    1.5848    6.1430 H         1 <0>         0.0911
     38 H19        -2.4990    0.3051    7.0620 H         1 <0>         0.0546
@<TRIPOS>BOND
     1    1    2 1
     2    1   21 1
     3    1   22 1
     4    1   23 1
     5    2    7 ar
     6    2    3 ar
     7    3    4 ar
     8    3   24 1
     9    4    5 ar
    10    4   20 1
    11    5    6 ar
    12    5   25 1
    13    6    7 ar
    14    6   26 1
    15    7    8 1
    16    8    9 am
    17    8   27 1
    18    9   10 2
    19    9   11 am
    20   11   12 1
    21   11   28 1
    22   12   13 1
    23   12   29 1
    24   12   30 1
    25   13   14 1
    26   13   19 1
    27   13   15 1
    28   15   16 1
    29   15   31 1
    30   15   32 1
    31   16   17 1
    32   16   33 1
    33   16   34 1
    34   17   18 1
    35   17   35 1
    36   17   36 1
    37   18   19 1
    38   19   37 1
    39   19   38 1
