@<TRIPOS>MOLECULE
CHEMBL610992
   58    61     0     0     0
SMALL
USER_CHARGES

@<TRIPOS>ATOM
      1 C1         -0.0164    1.3599    0.0095 C.2       1 <0>         0.2574
      2 N1          1.2003    1.8205    0.0004 N.2       1 <0>        -0.4523
      3 C2          2.0747    0.7847   -0.0135 C.ar      1 <0>        -0.1381
      4 C3          3.4762    0.6765   -0.0275 C.ar      1 <0>         0.5427
      5 N2          4.0192   -0.5358   -0.0392 N.ar      1 <0>        -0.6302
      6 C4          3.2640   -1.6252   -0.0378 C.ar      1 <0>         0.5704
      7 N3          1.9440   -1.5694   -0.0249 N.ar      1 <0>        -0.5557
      8 C5          1.3163   -0.3974   -0.0126 C.ar      1 <0>         0.3517
      9 N4          0.0021   -0.0041    0.0020 N.pl3     1 <0>        -0.4702
     10 C6         -1.1670   -0.8869    0.0089 C.3       1 <0>         0.3134
     11 C7         -1.5542   -1.2553    1.4583 C.3       1 <0>         0.0789
     12 H1         -1.1954   -0.4968    2.1540 H         1 <0>         0.0859
     13 C8         -3.0989   -1.2842    1.4384 C.3       1 <0>         0.0473
     14 H2         -3.5037   -0.5400    2.1242 H         1 <0>         0.0871
     15 C9         -3.4622   -0.9299   -0.0207 C.3       1 <0>         0.0503
     16 H3         -3.6138   -1.8375   -0.6051 H         1 <0>         0.1001
     17 O1         -2.3213   -0.1968   -0.5174 O.3       1 <0>        -0.3465
     18 C10        -4.7178   -0.0565   -0.0599 C.3       1 <0>         0.0823
     19 O2         -5.1032    0.1629   -1.4183 O.3       1 <0>        -0.5634
     20 O3         -3.5797   -2.5872    1.7747 O.3       1 <0>        -0.5386
     21 O4         -1.0311   -2.5390    1.8055 O.3       1 <0>        -0.5247
     22 O5          3.8669   -2.8386   -0.0506 O.3       1 <0>        -0.2830
     23 C11         5.2958   -2.8529   -0.0648 C.3       1 <0>         0.0775
     24 C12         5.7912   -4.3004   -0.0778 C.3       1 <0>        -0.1221
     25 C13         7.3210   -4.3158   -0.0930 C.3       1 <0>        -0.1099
     26 C14         7.8165   -5.7633   -0.1060 C.3       1 <0>        -0.0856
     27 C15         7.4177   -6.4506    1.2016 C.3       1 <0>        -0.1176
     28 C16         7.9131   -7.8981    1.1886 C.3       1 <0>        -0.1210
     29 C17         9.4366   -7.9145    1.0477 C.3       1 <0>        -0.1208
     30 C18         9.8353   -7.2272   -0.2598 C.3       1 <0>        -0.1205
     31 C19         9.3399   -5.7797   -0.2468 C.3       1 <0>        -0.1146
     32 N5          4.2726    1.8079   -0.0295 N.pl3     1 <0>        -0.8125
     33 H4         -0.9091    1.9676    0.0254 H         1 <0>         0.2238
     34 H5         -0.9654   -1.7869   -0.5722 H         1 <0>         0.1242
     35 H6         -5.5266   -0.5590    0.4706 H         1 <0>         0.0668
     36 H7         -4.5095    0.9008    0.4179 H         1 <0>         0.0611
     37 H8         -5.8940    0.7102   -1.5193 H         1 <0>         0.3865
     38 H9         -4.5438   -2.6622    1.7773 H         1 <0>         0.3870
     39 H10        -1.2445   -2.8203    2.7057 H         1 <0>         0.3903
     40 H11         5.6555   -2.3378   -0.9555 H         1 <0>         0.0701
     41 H12         5.6731   -2.3477    0.8244 H         1 <0>         0.0701
     42 H13         5.4315   -4.8156    0.8129 H         1 <0>         0.0772
     43 H14         5.4139   -4.8056   -0.9669 H         1 <0>         0.0745
     44 H15         7.6807   -3.8006   -0.9837 H         1 <0>         0.0667
     45 H16         7.6983   -3.8106    0.7962 H         1 <0>         0.0664
     46 H17         7.3681   -6.2932   -0.9464 H         1 <0>         0.0717
     47 H18         7.8661   -5.9206    2.0420 H         1 <0>         0.0615
     48 H19         6.3324   -6.4389    1.3019 H         1 <0>         0.0650
     49 H20         7.6291   -8.3877    2.1201 H         1 <0>         0.0605
     50 H21         7.4648   -8.4280    0.3482 H         1 <0>         0.0610
     51 H22         9.8849   -7.3846    1.8881 H         1 <0>         0.0605
     52 H23         9.7895   -8.9457    1.0384 H         1 <0>         0.0596
     53 H24        10.9206   -7.2389   -0.3602 H         1 <0>         0.0605
     54 H25         9.3869   -7.7572   -1.1002 H         1 <0>         0.0610
     55 H26         9.6239   -5.2901   -1.1783 H         1 <0>         0.0614
     56 H27         9.7882   -5.2498    0.5936 H         1 <0>         0.0618
     57 H28         3.8649    2.6880   -0.0212 H         1 <0>         0.4217
     58 H29         5.2386    1.7210   -0.0392 H         1 <0>         0.4111
@<TRIPOS>BOND
     1    1    9 1
     2    1    2 2
     3    1   33 1
     4    2    3 1
     5    3    8 ar
     6    3    4 ar
     7    4    5 ar
     8    4   32 1
     9    5    6 ar
    10    6    7 ar
    11    6   22 1
    12    7    8 ar
    13    8    9 1
    14    9   10 1
    15   10   17 1
    16   10   11 1
    17   10   34 1
    18   11   12 1
    19   11   13 1
    20   11   21 1
    21   13   14 1
    22   13   15 1
    23   13   20 1
    24   15   16 1
    25   15   17 1
    26   15   18 1
    27   18   19 1
    28   18   35 1
    29   18   36 1
    30   19   37 1
    31   20   38 1
    32   21   39 1
    33   22   23 1
    34   23   24 1
    35   23   40 1
    36   23   41 1
    37   24   25 1
    38   24   42 1
    39   24   43 1
    40   25   26 1
    41   25   44 1
    42   25   45 1
    43   26   31 1
    44   26   27 1
    45   26   46 1
    46   27   28 1
    47   27   47 1
    48   27   48 1
    49   28   29 1
    50   28   49 1
    51   28   50 1
    52   29   30 1
    53   29   51 1
    54   29   52 1
    55   30   31 1
    56   30   53 1
    57   30   54 1
    58   31   55 1
    59   31   56 1
    60   32   57 1
    61   32   58 1
