@<TRIPOS>MOLECULE
CHEMBL221561
   55    60     0     0     0
SMALL
USER_CHARGES

@<TRIPOS>ATOM
      1 C1         -0.0162    1.3433    0.0094 C.2       1 <0>        -0.2197
      2 C2          1.3252    1.7744   -0.0011 C.2       1 <0>        -0.1239
      3 C3          2.0963    0.6547   -0.0144 C.2       1 <0>         0.0312
      4 O1          1.2798   -0.4167   -0.0124 O.3       1 <0>        -0.1587
      5 C4          0.0021   -0.0041    0.0020 C.2       1 <0>        -0.0006
      6 C5          3.5735    0.6192   -0.0292 C.2       1 <0>         0.3324
      7 N1          4.3782    1.6975   -0.0257 N.2       1 <0>        -0.4756
      8 C6          5.6284    1.3133   -0.0438 C.2       1 <0>         0.4990
      9 N2          6.7827    2.0136   -0.0426 N.2       1 <0>        -0.5238
     10 C7          7.9149    1.3544   -0.2245 C.2       1 <0>         0.6633
     11 N3          7.9251    0.0030   -0.4737 N.pl3     1 <0>        -0.7080
     12 C8          6.8335   -0.7612   -0.0614 C.2       1 <0>         0.6314
     13 N4          5.6350   -0.0666   -0.0535 N.pl3     1 <0>        -0.3830
     14 N5          4.3125   -0.4776   -0.0421 N.2       1 <0>        -0.2426
     15 N6          6.9320   -2.0133    0.2840 N.2       1 <0>        -0.6518
     16 N7          9.1029    2.0335   -0.1638 N.pl3     1 <0>        -0.5999
     17 C9         10.3866    1.3423   -0.3661 C.3       1 <0>         0.0903
     18 C10        11.3005    1.6893    0.8113 C.3       1 <0>        -0.0209
     19 N8         11.4311    3.1501    0.9330 N.4       1 <0>        -0.3838
     20 C11        12.3915    3.4256    2.0122 C.3       1 <0>         0.0007
     21 C12        12.6152    4.9311    2.1496 C.3       1 <0>        -0.1226
     22 H1         13.3336    5.1226    2.9467 H         1 <0>         0.1274
     23 C13        11.2787    5.5987    2.4911 C.3       1 <0>        -0.1410
     24 C14        10.2734    5.2712    1.3860 C.3       1 <0>        -0.1363
     25 C15        10.1305    3.7519    1.2449 C.3       1 <0>         0.0146
     26 H2          9.7485    3.3332    2.1760 H         1 <0>         0.1475
     27 C16         9.1400    3.4780    0.0994 C.3       1 <0>         0.1090
     28 C17        13.1504    5.4926    0.8309 C.3       1 <0>         0.1222
     29 N9         13.4764    6.9108    1.0005 N.pl3     1 <0>        -0.3941
     30 C18        14.6544    7.5035    0.7394 C.2       1 <0>         0.2665
     31 N10        14.5397    8.7761    1.0206 N.2       1 <0>        -0.5326
     32 C19        13.3088    9.0323    1.4617 C.2       1 <0>         0.2204
     33 N11        12.6186    7.9223    1.4624 N.2       1 <0>        -0.3223
     34 H3         -0.8931    1.9736    0.0252 H         1 <0>         0.1612
     35 H4          1.6735    2.7967    0.0011 H         1 <0>         0.1630
     36 H5         -0.8667   -0.6456    0.0069 H         1 <0>         0.2154
     37 H6          7.7947   -2.4563    0.2614 H         1 <0>         0.3682
     38 H7         10.2237    0.2651   -0.4012 H         1 <0>         0.1242
     39 H8         10.8427    1.6772   -1.2978 H         1 <0>         0.1130
     40 H9         10.8752    1.2862    1.7304 H         1 <0>         0.1393
     41 H10        12.2846    1.2505    0.6469 H         1 <0>         0.1533
     42 H11        12.0025    3.0313    2.9510 H         1 <0>         0.1397
     43 H12        13.3399    2.9391    1.7844 H         1 <0>         0.1386
     44 H13        10.9121    5.2172    3.4440 H         1 <0>         0.0847
     45 H14        11.4145    6.6783    2.5540 H         1 <0>         0.1280
     46 H15         9.3052    5.7042    1.6374 H         1 <0>         0.1220
     47 H16        10.6225    5.6913    0.4427 H         1 <0>         0.0906
     48 H17         9.4634    4.0037   -0.7990 H         1 <0>         0.1037
     49 H18         8.1461    3.8217    0.3858 H         1 <0>         0.1537
     50 H19        14.0476    4.9458    0.5406 H         1 <0>         0.1128
     51 H20        12.3921    5.3844    0.0554 H         1 <0>         0.0817
     52 H21        15.5410    7.0144    0.3637 H         1 <0>         0.2221
     53 H22        12.9399   10.0009    1.7654 H         1 <0>         0.2230
     54 H23         8.6760   -0.4109   -0.9272 H         1 <0>         0.4280
     55 H24        11.7789    3.5306    0.0656 H         1 <0>         0.4192
@<TRIPOS>BOND
     1    1    5 2
     2    1    2 1
     3    1   34 1
     4    2    3 2
     5    2   35 1
     6    3    4 1
     7    3    6 1
     8    4    5 1
     9    5   36 1
    10    6   14 2
    11    6    7 1
    12    7    8 2
    13    8   13 1
    14    8    9 1
    15    9   10 2
    16   10   11 1
    17   10   16 1
    18   11   12 1
    19   11   54 1
    20   12   13 1
    21   12   15 2
    22   13   14 1
    23   15   37 1
    24   16   27 1
    25   16   17 1
    26   17   18 1
    27   17   38 1
    28   17   39 1
    29   18   19 1
    30   18   40 1
    31   18   41 1
    32   19   25 1
    33   19   20 1
    34   19   55 1
    35   20   21 1
    36   20   42 1
    37   20   43 1
    38   21   22 1
    39   21   23 1
    40   21   28 1
    41   23   24 1
    42   23   44 1
    43   23   45 1
    44   24   25 1
    45   24   46 1
    46   24   47 1
    47   25   26 1
    48   25   27 1
    49   27   48 1
    50   27   49 1
    51   28   29 1
    52   28   50 1
    53   28   51 1
    54   29   33 1
    55   29   30 1
    56   30   31 2
    57   30   52 1
    58   31   32 1
    59   32   33 2
    60   32   53 1
