@<TRIPOS>MOLECULE
CHEMBL85864
   40    44     0     0     0
SMALL
USER_CHARGES

@<TRIPOS>ATOM
      1 C1         -0.0167    1.3781    0.0096 C.ar      1 <0>        -0.1177
      2 C2          1.1709    2.0855    0.0021 C.ar      1 <0>        -0.1173
      3 C3          2.3773    1.4107   -0.0130 C.ar      1 <0>        -0.1113
      4 C4          2.3960    0.0285   -0.0201 C.ar      1 <0>        -0.0881
      5 C5          1.2084   -0.6789   -0.0117 C.ar      1 <0>        -0.1115
      6 C6          0.0021   -0.0041    0.0020 C.ar      1 <0>        -0.1182
      7 C7          3.7112   -0.7071   -0.0376 C.3       1 <0>        -0.0948
      8 C8          4.1714   -0.9633    1.3989 C.3       1 <0>         0.1353
      9 N1          5.4498   -1.6784    1.3820 N.pl3     1 <0>        -0.3571
     10 C9          5.6273   -3.0331    1.3678 C.2       1 <0>         0.3403
     11 C10         7.0122   -3.2411    1.3542 C.2       1 <0>        -0.0792
     12 C11         7.4927   -4.6244    1.3377 C.2       1 <0>         0.4102
     13 N2          8.6851   -5.1838    1.3226 N.2       1 <0>        -0.4895
     14 C12         8.5561   -6.5164    1.3116 C.2       1 <0>         0.3518
     15 N3          7.2739   -6.8295    1.3196 N.2       1 <0>        -0.2859
     16 N4          6.5575   -5.6258    1.3365 N.pl3     1 <0>        -0.3713
     17 C13         5.2282   -5.3187    1.3505 C.2       1 <0>         0.6976
     18 N5          4.7949   -4.0817    1.3656 N.2       1 <0>        -0.5537
     19 N6          4.3104   -6.3433    1.3486 N.pl3     1 <0>        -0.7946
     20 C14         9.6731   -7.4840    1.2935 C.2       1 <0>         0.0382
     21 C15         9.5553   -8.8382    1.2768 C.2       1 <0>        -0.1328
     22 C16        10.8643   -9.3594    1.2624 C.2       1 <0>        -0.2207
     23 C17        11.7077   -8.3085    1.2710 C.2       1 <0>         0.0002
     24 O1         10.9847   -7.1771    1.2847 O.3       1 <0>        -0.1509
     25 N7          7.6128   -2.0434    1.3604 N.2       1 <0>        -0.1603
     26 N8          6.7305   -1.1058    1.3709 N.2       1 <0>        -0.0255
     27 H1         -0.9591    1.9053    0.0259 H         1 <0>         0.1231
     28 H2          1.1563    3.1654    0.0076 H         1 <0>         0.1245
     29 H3          3.3051    1.9634   -0.0196 H         1 <0>         0.1250
     30 H4          1.2231   -1.7588   -0.0176 H         1 <0>         0.1234
     31 H5         -0.9258   -0.5567    0.0082 H         1 <0>         0.1237
     32 H6          3.5884   -1.6586   -0.5549 H         1 <0>         0.0821
     33 H7          4.4573   -0.1052   -0.5563 H         1 <0>         0.0866
     34 H8          4.2941   -0.0118    1.9163 H         1 <0>         0.1120
     35 H9          3.4252   -1.5652    1.9176 H         1 <0>         0.1080
     36 H10         4.6125   -7.2650    1.3374 H         1 <0>         0.4288
     37 H11         3.3611   -6.1441    1.3584 H         1 <0>         0.4328
     38 H12         8.6360   -9.4050    1.2748 H         1 <0>         0.1611
     39 H13        11.1396  -10.4036    1.2480 H         1 <0>         0.1604
     40 H14        12.7861   -8.3665    1.2640 H         1 <0>         0.2151
@<TRIPOS>BOND
     1    1    6 ar
     2    1    2 ar
     3    1   27 1
     4    2    3 ar
     5    2   28 1
     6    3    4 ar
     7    3   29 1
     8    4    5 ar
     9    4    7 1
    10    5    6 ar
    11    5   30 1
    12    6   31 1
    13    7    8 1
    14    7   32 1
    15    7   33 1
    16    8    9 1
    17    8   34 1
    18    8   35 1
    19    9   26 1
    20    9   10 1
    21   10   18 1
    22   10   11 2
    23   11   12 1
    24   11   25 1
    25   12   16 1
    26   12   13 2
    27   13   14 1
    28   14   15 2
    29   14   20 1
    30   15   16 1
    31   16   17 1
    32   17   18 2
    33   17   19 1
    34   19   36 1
    35   19   37 1
    36   20   24 1
    37   20   21 2
    38   21   22 1
    39   21   38 1
    40   22   23 2
    41   22   39 1
    42   23   24 1
    43   23   40 1
    44   25   26 2
