@<TRIPOS>MOLECULE
CHEMBL487371
   52    55     0     0     0
SMALL
USER_CHARGES

@<TRIPOS>ATOM
      1 C1         -0.2330    1.6188   -0.8516 C.3       1 <0>        -0.0741
      2 C2         -0.1002    0.1369   -0.6119 C.2       1 <0>         0.0932
      3 C3         -0.2543   -0.8660   -1.5765 C.2       1 <0>        -0.2635
      4 C4         -0.0583   -2.0598   -0.9723 C.2       1 <0>         0.1210
      5 N1          0.2121   -1.8181    0.3376 N.pl3     1 <0>        -0.3199
      6 N2          0.1841   -0.4309    0.5314 N.2       1 <0>        -0.2628
      7 C5          0.4753   -2.7793    1.3137 C.ar      1 <0>         0.6011
      8 N3          0.5855   -2.4006    2.5753 N.ar      1 <0>        -0.5232
      9 C6          0.8360   -3.2896    3.5353 C.ar      1 <0>         0.2660
     10 C7          0.9816   -4.6321    3.1925 C.ar      1 <0>        -0.2677
     11 C8          0.8580   -4.9896    1.8512 C.ar      1 <0>         0.4401
     12 N4          0.6024   -4.0455    0.9516 N.ar      1 <0>        -0.5301
     13 N5          0.9952   -6.3172    1.4600 N.am      1 <0>        -0.6540
     14 C9          0.9792   -6.6392    0.1514 C.2       1 <0>         0.5014
     15 O1          0.7527   -5.7862   -0.6802 O.2       1 <0>        -0.4675
     16 C10         1.2430   -8.0594   -0.2783 C.3       1 <0>        -0.1686
     17 C11         0.9587   -2.8561    4.9495 C.ar      1 <0>         0.0266
     18 C12         1.2275   -3.7822    5.9636 C.ar      1 <0>        -0.2079
     19 C13         1.3349   -3.3416    7.2654 C.ar      1 <0>         0.1511
     20 N6          1.1877   -2.0647    7.5648 N.ar      1 <0>        -0.5323
     21 C14         0.9327   -1.1537    6.6386 C.ar      1 <0>         0.4063
     22 C15         0.8150   -1.5148    5.3014 C.ar      1 <0>        -0.1870
     23 N7          0.7864    0.1790    7.0065 N.pl3     1 <0>        -0.6110
     24 C16         1.1209    0.6305    8.3665 C.3       1 <0>         0.0925
     25 C17         2.0458    1.8482    8.2579 C.3       1 <0>         0.0453
     26 O2          1.4467    2.8189    7.3961 O.3       1 <0>        -0.3790
     27 C18         1.2580    2.3708    6.0517 C.3       1 <0>         0.0476
     28 C19         0.2982    1.1809    6.0457 C.3       1 <0>         0.0852
     29 C20        -0.1276   -3.4131   -1.6317 C.3       1 <0>        -0.0821
     30 H1          0.7369    2.0299   -1.1313 H         1 <0>         0.0820
     31 H2         -0.9476    1.7942   -1.6557 H         1 <0>         0.0826
     32 H3         -0.5844    2.1041    0.0590 H         1 <0>         0.0765
     33 H4         -0.4887   -0.7131   -2.6196 H         1 <0>         0.1590
     34 H5          1.1854   -5.3772    3.9474 H         1 <0>         0.1599
     35 H6          1.1023   -7.0113    2.1291 H         1 <0>         0.4255
     36 H7          1.4244   -8.6773    0.6010 H         1 <0>         0.0798
     37 H8          0.3774   -8.4421   -0.8190 H         1 <0>         0.1026
     38 H9          2.1179   -8.0859   -0.9279 H         1 <0>         0.1027
     39 H10         1.3490   -4.8295    5.7292 H         1 <0>         0.1380
     40 H11         1.5422   -4.0520    8.0521 H         1 <0>         0.1632
     41 H12         0.6115   -0.7687    4.5476 H         1 <0>         0.1486
     42 H13         0.2094    0.9079    8.8959 H         1 <0>         0.0709
     43 H14         1.6293   -0.1698    8.9043 H         1 <0>         0.1035
     44 H15         2.1945    2.2818    9.2468 H         1 <0>         0.1068
     45 H16         3.0069    1.5399    7.8464 H         1 <0>         0.0546
     46 H17         0.8400    3.1804    5.4534 H         1 <0>         0.1091
     47 H18         2.2163    2.0644    5.6322 H         1 <0>         0.0566
     48 H19         0.2620    0.7450    5.0473 H         1 <0>         0.0981
     49 H20        -0.6976    1.5147    6.3374 H         1 <0>         0.0772
     50 H21         0.8761   -3.7322   -1.9128 H         1 <0>         0.0851
     51 H22        -0.5568   -4.1345   -0.9364 H         1 <0>         0.0991
     52 H23        -0.7522   -3.3515   -2.5229 H         1 <0>         0.0720
@<TRIPOS>BOND
     1    1    2 1
     2    1   30 1
     3    1   31 1
     4    1   32 1
     5    2    6 2
     6    2    3 1
     7    3    4 2
     8    3   33 1
     9    4    5 1
    10    4   29 1
    11    5    6 1
    12    5    7 1
    13    7   12 ar
    14    7    8 ar
    15    8    9 ar
    16    9   10 ar
    17    9   17 1
    18   10   11 ar
    19   10   34 1
    20   11   12 ar
    21   11   13 1
    22   13   14 am
    23   13   35 1
    24   14   15 2
    25   14   16 1
    26   16   36 1
    27   16   37 1
    28   16   38 1
    29   17   22 ar
    30   17   18 ar
    31   18   19 ar
    32   18   39 1
    33   19   20 ar
    34   19   40 1
    35   20   21 ar
    36   21   22 ar
    37   21   23 1
    38   22   41 1
    39   23   28 1
    40   23   24 1
    41   24   25 1
    42   24   42 1
    43   24   43 1
    44   25   26 1
    45   25   44 1
    46   25   45 1
    47   26   27 1
    48   27   28 1
    49   27   46 1
    50   27   47 1
    51   28   48 1
    52   28   49 1
    53   29   50 1
    54   29   51 1
    55   29   52 1
