@<TRIPOS>MOLECULE
CHEMBL257429
   86    91     0     0     0
SMALL
USER_CHARGES

@<TRIPOS>ATOM
      1 C1         -2.2688    1.4569    0.1599 C.3       1 <0>         0.0297
      2 O1         -2.5322    0.0535    0.2147 O.3       1 <0>        -0.3819
      3 C2         -3.8056   -0.2776    0.7723 C.3       1 <0>         0.0633
      4 C3         -3.9788   -1.7977    0.7813 C.3       1 <0>         0.0932
      5 H1         -3.8204   -2.1946   -0.2215 H         1 <0>         0.1076
      6 C4         -5.3940   -2.1610    1.2711 C.3       1 <0>         0.0471
      7 H2         -5.9437   -1.2620    1.5499 H         1 <0>         0.0918
      8 C5         -5.1485   -3.0528    2.5125 C.3       1 <0>         0.0368
      9 H3         -5.2211   -2.4699    3.4307 H         1 <0>         0.0886
     10 C6         -3.6957   -3.5402    2.2801 C.3       1 <0>         0.3185
     11 H4         -3.6793   -4.3821    1.5880 H         1 <0>         0.1217
     12 O2         -3.0415   -2.3911    1.6954 O.3       1 <0>        -0.3458
     13 N1         -3.0650   -3.9066    3.5506 N.pl3     1 <0>        -0.4657
     14 C7         -2.2793   -3.1032    4.3223 C.2       1 <0>         0.2744
     15 N2         -1.8876   -3.7495    5.3818 N.2       1 <0>        -0.4576
     16 C8         -2.3955   -5.0052    5.3575 C.ar      1 <0>        -0.0938
     17 C9         -3.1616   -5.1193    4.1849 C.ar      1 <0>         0.3130
     18 N3         -3.7785   -6.2674    3.9256 N.ar      1 <0>        -0.5349
     19 C10        -3.6782   -7.2851    4.7546 C.ar      1 <0>         0.3637
     20 N4         -2.9731   -7.2243    5.8694 N.ar      1 <0>        -0.5844
     21 C11        -2.3145   -6.1206    6.2081 C.ar      1 <0>         0.5155
     22 N5         -1.5791   -6.0661    7.3791 N.pl3     1 <0>        -0.6819
     23 C12        -1.5061   -7.2392    8.2536 C.3       1 <0>         0.1391
     24 C13        -0.6370   -6.9151    9.4703 C.3       1 <0>        -0.0203
     25 C14        -0.6614   -8.0775   10.4291 C.ar      1 <0>        -0.0742
     26 C15        -0.9823   -7.8710   11.7577 C.ar      1 <0>        -0.1090
     27 C16        -1.0047   -8.9373   12.6371 C.ar      1 <0>        -0.1143
     28 C17        -0.7067  -10.2102   12.1878 C.ar      1 <0>        -0.1168
     29 C18        -0.3867  -10.4168   10.8590 C.ar      1 <0>        -0.1175
     30 C19        -0.3685   -9.3512    9.9787 C.ar      1 <0>        -0.1135
     31 C20         0.7797   -6.6627    9.0228 C.ar      1 <0>        -0.0820
     32 C21         1.4255   -7.5843    8.2200 C.ar      1 <0>        -0.1108
     33 C22         2.7250   -7.3527    7.8095 C.ar      1 <0>        -0.1176
     34 C23         3.3786   -6.1995    8.2015 C.ar      1 <0>        -0.1165
     35 C24         2.7325   -5.2775    9.0036 C.ar      1 <0>        -0.1126
     36 C25         1.4315   -5.5069    9.4105 C.ar      1 <0>        -0.1123
     37 C26        -4.3953   -8.5674    4.4190 C.3       1 <0>        -0.0643
     38 C27        -3.4729   -9.4665    3.5934 C.3       1 <0>        -0.0049
     39 N6         -4.1719  -10.7164    3.2662 N.4       1 <0>        -0.5057
     40 C28        -3.2863  -11.5797    2.4735 C.3       1 <0>         0.0264
     41 C29        -2.9964  -10.9137    1.1270 C.3       1 <0>        -0.1418
     42 C30        -2.0740  -11.8128    0.3013 C.3       1 <0>        -0.1179
     43 C31        -2.7543  -13.1630    0.0665 C.3       1 <0>        -0.1316
     44 C32        -3.0442  -13.8290    1.4131 C.3       1 <0>        -0.1176
     45 C33        -3.9666  -12.9299    2.2387 C.3       1 <0>        -0.1401
     46 O3         -6.0588   -4.1541    2.5373 O.3       1 <0>        -0.5301
     47 O4         -6.1014   -2.8860    0.2632 O.3       1 <0>        -0.5378
     48 H5         -1.2838    1.6250   -0.2755 H         1 <0>         0.0927
     49 H6         -3.0256    1.9449   -0.4543 H         1 <0>         0.0454
     50 H7         -2.2961    1.8713    1.1676 H         1 <0>         0.0453
     51 H8         -3.8648    0.1008    1.7928 H         1 <0>         0.0621
     52 H9         -4.5942    0.1744    0.1709 H         1 <0>         0.0746
     53 H10        -2.0198   -2.0812    4.0888 H         1 <0>         0.2272
     54 H11        -1.1119   -5.2511    7.6209 H         1 <0>         0.4228
     55 H12        -2.5091   -7.5084    8.5848 H         1 <0>         0.0786
     56 H13        -1.0680   -8.0738    7.7061 H         1 <0>         0.0746
     57 H14        -1.0249   -6.0259    9.9674 H         1 <0>         0.0949
     58 H15        -1.2152   -6.8765   12.1087 H         1 <0>         0.1230
     59 H16        -1.2547   -8.7758   13.6753 H         1 <0>         0.1252
     60 H17        -0.7235  -11.0431   12.8751 H         1 <0>         0.1237
     61 H18        -0.1535  -11.4112   10.5081 H         1 <0>         0.1223
     62 H19        -0.1221   -9.5132    8.9397 H         1 <0>         0.1194
     63 H20         0.9149   -8.4853    7.9137 H         1 <0>         0.1176
     64 H21         3.2298   -8.0731    7.1828 H         1 <0>         0.1208
     65 H22         4.3941   -6.0189    7.8813 H         1 <0>         0.1230
     66 H23         3.2432   -4.3766    9.3101 H         1 <0>         0.1248
     67 H24         0.9254   -4.7849   10.0341 H         1 <0>         0.1227
     68 H25        -4.6733   -9.0799    5.3399 H         1 <0>         0.1140
     69 H26        -5.2930   -8.3417    3.8435 H         1 <0>         0.1132
     70 H27        -3.1948   -8.9539    2.6725 H         1 <0>         0.1363
     71 H28        -2.5751   -9.6922    4.1689 H         1 <0>         0.1361
     72 H29        -4.4293  -11.1909    4.1187 H         1 <0>         0.4291
     73 H30        -2.3510  -11.7329    3.0119 H         1 <0>         0.1390
     74 H31        -3.9316  -10.7605    0.5885 H         1 <0>         0.0882
     75 H32        -2.5117   -9.9518    1.2942 H         1 <0>         0.0865
     76 H33        -1.8674  -11.3383   -0.6580 H         1 <0>         0.0841
     77 H34        -1.1387  -11.9660    0.8398 H         1 <0>         0.0739
     78 H35        -3.6896  -13.0098   -0.4719 H         1 <0>         0.0705
     79 H36        -2.0972  -13.8035   -0.5216 H         1 <0>         0.0788
     80 H37        -3.5289  -14.7909    1.2458 H         1 <0>         0.0848
     81 H38        -2.1089  -13.9822    1.9515 H         1 <0>         0.0743
     82 H39        -4.1731  -13.4044    3.1981 H         1 <0>         0.0881
     83 H40        -4.9019  -12.7767    1.7003 H         1 <0>         0.0875
     84 H41        -6.9888   -3.8946    2.5908 H         1 <0>         0.3850
     85 H42        -6.9988   -3.1403    0.5183 H         1 <0>         0.3874
     86 H43        -5.0029  -10.5075    2.7335 H         1 <0>         0.4271
@<TRIPOS>BOND
     1    1    2 1
     2    1   48 1
     3    1   49 1
     4    1   50 1
     5    2    3 1
     6    3    4 1
     7    3   51 1
     8    3   52 1
     9    4    5 1
    10    4   12 1
    11    4    6 1
    12    6    7 1
    13    6    8 1
    14    6   47 1
    15    8    9 1
    16    8   10 1
    17    8   46 1
    18   10   11 1
    19   10   12 1
    20   10   13 1
    21   13   17 1
    22   13   14 1
    23   14   15 2
    24   14   53 1
    25   15   16 1
    26   16   21 ar
    27   16   17 ar
    28   17   18 ar
    29   18   19 ar
    30   19   20 ar
    31   19   37 1
    32   20   21 ar
    33   21   22 1
    34   22   23 1
    35   22   54 1
    36   23   24 1
    37   23   55 1
    38   23   56 1
    39   24   25 1
    40   24   31 1
    41   24   57 1
    42   25   30 ar
    43   25   26 ar
    44   26   27 ar
    45   26   58 1
    46   27   28 ar
    47   27   59 1
    48   28   29 ar
    49   28   60 1
    50   29   30 ar
    51   29   61 1
    52   30   62 1
    53   31   36 ar
    54   31   32 ar
    55   32   33 ar
    56   32   63 1
    57   33   34 ar
    58   33   64 1
    59   34   35 ar
    60   34   65 1
    61   35   36 ar
    62   35   66 1
    63   36   67 1
    64   37   38 1
    65   37   68 1
    66   37   69 1
    67   38   39 1
    68   38   70 1
    69   38   71 1
    70   39   40 1
    71   39   72 1
    72   39   86 1
    73   40   45 1
    74   40   41 1
    75   40   73 1
    76   41   42 1
    77   41   74 1
    78   41   75 1
    79   42   43 1
    80   42   76 1
    81   42   77 1
    82   43   44 1
    83   43   78 1
    84   43   79 1
    85   44   45 1
    86   44   80 1
    87   44   81 1
    88   45   82 1
    89   45   83 1
    90   46   84 1
    91   47   85 1
