@<TRIPOS>MOLECULE
CHEMBL259832
   36    39     0     0     0
SMALL
USER_CHARGES

@<TRIPOS>ATOM
      1 C1         -0.0162    1.3409    0.0094 C.2       1 <0>        -0.2190
      2 C2          1.3313    1.7689   -0.0012 C.2       1 <0>        -0.1717
      3 C3          2.0923    0.6599   -0.0144 C.2       1 <0>        -0.0509
      4 O1          1.2819   -0.4111   -0.0124 O.3       1 <0>        -0.1702
      5 C4          0.0021   -0.0041    0.0020 C.2       1 <0>        -0.0194
      6 C5          3.5989    0.6249   -0.0294 C.3       1 <0>         0.2196
      7 N1          4.1006    0.6065    1.3469 N.am      1 <0>        -0.7236
      8 C6          5.4277    0.5745    1.5799 C.2       1 <0>         0.7122
      9 O2          6.2080    0.5610    0.6485 O.2       1 <0>        -0.5068
     10 N2          5.8894    0.5575    2.8460 N.am      1 <0>        -0.4705
     11 C7          5.1315    0.5635    3.9881 C.2       1 <0>         0.2530
     12 N3          5.9052    0.5419    5.0328 N.2       1 <0>        -0.4169
     13 C8          7.2014    0.5208    4.6398 C.ar      1 <0>        -0.0934
     14 C9          7.2116    0.5249    3.2341 C.ar      1 <0>         0.3668
     15 N4          8.3735    0.5015    2.5947 N.ar      1 <0>        -0.5473
     16 C10         9.5149    0.4715    3.2664 C.ar      1 <0>         0.6033
     17 N5          9.5576    0.4631    4.5903 N.ar      1 <0>        -0.5433
     18 C11         8.4382    0.4936    5.3151 C.ar      1 <0>         0.3710
     19 C12         8.4930    0.4828    6.7870 C.2       1 <0>         0.0044
     20 C13         9.4170   -0.1673    7.5483 C.2       1 <0>        -0.1326
     21 C14         9.0907    0.0936    8.8918 C.2       1 <0>        -0.2233
     22 C15         7.9958    0.8816    8.8875 C.2       1 <0>        -0.0067
     23 O3          7.6413    1.1191    7.6154 O.3       1 <0>        -0.1488
     24 N6         10.7058    0.4478    2.5592 N.pl3     1 <0>        -0.8074
     25 H1         -0.8920    1.9726    0.0252 H         1 <0>         0.1535
     26 H2          1.6822    2.7903    0.0004 H         1 <0>         0.1533
     27 H3         -0.8653   -0.6475    0.0072 H         1 <0>         0.2078
     28 H4          3.9364   -0.2706   -0.5512 H         1 <0>         0.0940
     29 H5          3.9777    1.5089   -0.5424 H         1 <0>         0.1080
     30 H6          3.4778    0.6173    2.0904 H         1 <0>         0.4059
     31 H7          4.0521    0.5835    4.0161 H         1 <0>         0.2318
     32 H8         10.2404   -0.7673    7.1899 H         1 <0>         0.1576
     33 H9          9.6171   -0.2690    9.7623 H         1 <0>         0.1566
     34 H10         7.4904    1.2616    9.7631 H         1 <0>         0.2114
     35 H11        10.6942    0.4532    1.5893 H         1 <0>         0.4207
     36 H12        11.5514    0.4257    3.0340 H         1 <0>         0.4208
@<TRIPOS>BOND
     1    1    5 2
     2    1    2 1
     3    1   25 1
     4    2    3 2
     5    2   26 1
     6    3    4 1
     7    3    6 1
     8    4    5 1
     9    5   27 1
    10    6    7 1
    11    6   28 1
    12    6   29 1
    13    7    8 am
    14    7   30 1
    15    8    9 2
    16    8   10 am
    17   10   14 1
    18   10   11 1
    19   11   12 2
    20   11   31 1
    21   12   13 1
    22   13   18 ar
    23   13   14 ar
    24   14   15 ar
    25   15   16 ar
    26   16   17 ar
    27   16   24 1
    28   17   18 ar
    29   18   19 1
    30   19   23 1
    31   19   20 2
    32   20   21 1
    33   20   32 1
    34   21   22 2
    35   21   33 1
    36   22   23 1
    37   22   34 1
    38   24   35 1
    39   24   36 1
