@<TRIPOS>MOLECULE
CHEMBL163626
   71    73     0     0     0
SMALL
USER_CHARGES

@<TRIPOS>ATOM
      1 C1          0.3592    1.5728    0.0127 C.3       1 <0>        -0.1503
      2 C2          0.3386    0.0432    0.0399 C.3       1 <0>        -0.1222
      3 C3          0.7934   -0.4972   -1.3174 C.3       1 <0>        -0.1040
      4 C4          0.7731   -2.0038   -1.2906 C.ar      1 <0>         0.0531
      5 C5          1.8984   -2.7296   -0.8879 C.ar      1 <0>        -0.1850
      6 C6          1.8415   -4.1264   -0.8757 C.ar      1 <0>         0.2073
      7 N1          0.7490   -4.7637   -1.2361 N.ar      1 <0>        -0.4619
      8 C7         -0.3431   -4.1193   -1.6256 C.ar      1 <0>         0.2446
      9 C8         -0.3715   -2.7116   -1.6617 C.ar      1 <0>        -0.1549
     10 C9         -1.5892   -1.9970   -2.0892 C.2       1 <0>         0.5312
     11 O1         -1.7014   -1.6224   -3.2395 O.2       1 <0>        -0.4863
     12 O2         -2.5769   -1.7598   -1.2040 O.3       1 <0>        -0.3368
     13 C10        -3.7272   -1.0628   -1.6868 C.3       1 <0>         0.0615
     14 C11        -4.7329   -0.8875   -0.5472 C.3       1 <0>        -0.1231
     15 C12        -5.9645   -0.1412   -1.0641 C.3       1 <0>        -0.1506
     16 C13        -1.5454   -4.8870   -2.0208 C.ar      1 <0>        -0.0686
     17 C14        -2.2582   -4.5318   -3.1664 C.ar      1 <0>        -0.1039
     18 C15        -3.3780   -5.2513   -3.5294 C.ar      1 <0>        -0.1180
     19 C16        -3.7949   -6.3228   -2.7597 C.ar      1 <0>        -0.0985
     20 C17        -3.0927   -6.6798   -1.6223 C.ar      1 <0>        -0.1220
     21 C18        -1.9674   -5.9725   -1.2523 C.ar      1 <0>        -0.0687
     22 C19         3.0512   -4.9142   -0.4431 C.3       1 <0>        -0.0817
     23 C20         2.9929   -5.1498    1.0675 C.3       1 <0>         0.0694
     24 O3          4.1400   -5.8968    1.4777 O.3       1 <0>        -0.3768
     25 C21         4.1834   -6.1726    2.8791 C.3       1 <0>         0.1042
     26 C22         5.4278   -6.9605    3.1978 C.ar      1 <0>        -0.0926
     27 C23         5.4008   -8.3419    3.1562 C.ar      1 <0>        -0.0976
     28 C24         6.5424   -9.0646    3.4485 C.ar      1 <0>        -0.1230
     29 C25         7.7110   -8.4059    3.7819 C.ar      1 <0>        -0.1127
     30 C26         7.7383   -7.0244    3.8226 C.ar      1 <0>        -0.1233
     31 C27         6.5979   -6.3016    3.5262 C.ar      1 <0>        -0.0984
     32 C28         3.1332   -2.0285   -0.4806 C.2       1 <0>         0.4120
     33 O4          3.2999   -1.7170    0.6831 O.2       1 <0>        -0.4209
     34 S1          4.3646   -1.6437   -1.6807 S.3       1 <0>        -0.1610
     35 C29         5.6600   -0.8053   -0.7270 C.3       1 <0>        -0.0955
     36 C30         6.8063   -0.4111   -1.6606 C.3       1 <0>        -0.1393
     37 H1          1.3716    1.9189   -0.1954 H         1 <0>         0.0567
     38 H2         -0.3145    1.9315   -0.7655 H         1 <0>         0.0569
     39 H3          0.0351    1.9578    0.9796 H         1 <0>         0.0621
     40 H4          1.0123   -0.3155    0.8180 H         1 <0>         0.0717
     41 H5         -0.6739   -0.3029    0.2479 H         1 <0>         0.0713
     42 H6          0.1197   -0.1385   -2.0955 H         1 <0>         0.0903
     43 H7          1.8059   -0.1511   -1.5254 H         1 <0>         0.0899
     44 H8         -3.4282   -0.0838   -2.0613 H         1 <0>         0.0711
     45 H9         -4.1872   -1.6350   -2.4925 H         1 <0>         0.0719
     46 H10        -5.0320   -1.8665   -0.1727 H         1 <0>         0.0752
     47 H11        -4.2730   -0.3152    0.2585 H         1 <0>         0.0747
     48 H12        -6.6810   -0.0163   -0.2523 H         1 <0>         0.0669
     49 H13        -5.6654    0.8378   -1.4386 H         1 <0>         0.0588
     50 H14        -6.4244   -0.7134   -1.8698 H         1 <0>         0.0591
     51 H15        -1.9342   -3.6951   -3.7676 H         1 <0>         0.1337
     52 H16        -3.9306   -4.9773   -4.4159 H         1 <0>         0.1295
     53 H17        -4.6723   -6.8827   -3.0479 H         1 <0>         0.1282
     54 H18        -3.4235   -7.5168   -1.0253 H         1 <0>         0.1305
     55 H19        -1.4171   -6.2553   -0.3671 H         1 <0>         0.1305
     56 H20         3.0639   -5.8736   -0.9603 H         1 <0>         0.1093
     57 H21         3.9549   -4.3567   -0.6893 H         1 <0>         0.0941
     58 H22         2.9802   -4.1903    1.5846 H         1 <0>         0.0553
     59 H23         2.0892   -5.7072    1.3137 H         1 <0>         0.0595
     60 H24         4.1953   -5.2344    3.4338 H         1 <0>         0.0591
     61 H25         3.3043   -6.7513    3.1629 H         1 <0>         0.0602
     62 H26         4.4878   -8.8566    2.8957 H         1 <0>         0.1233
     63 H27         6.5211  -10.1440    3.4167 H         1 <0>         0.1245
     64 H28         8.6027   -8.9706    4.0110 H         1 <0>         0.1234
     65 H29         8.6512   -6.5098    4.0835 H         1 <0>         0.1240
     66 H30         6.6201   -5.2222    3.5543 H         1 <0>         0.1220
     67 H31         5.2468    0.0893   -0.2612 H         1 <0>         0.0948
     68 H32         6.0349   -1.4769    0.0453 H         1 <0>         0.0962
     69 H33         7.2195   -1.3058   -2.1264 H         1 <0>         0.0696
     70 H34         6.4314    0.2605   -2.4329 H         1 <0>         0.0686
     71 H35         7.5847    0.0927   -1.0875 H         1 <0>         0.0815
@<TRIPOS>BOND
     1    1    2 1
     2    1   37 1
     3    1   38 1
     4    1   39 1
     5    2    3 1
     6    2   40 1
     7    2   41 1
     8    3    4 1
     9    3   42 1
    10    3   43 1
    11    4    9 ar
    12    4    5 ar
    13    5    6 ar
    14    5   32 1
    15    6    7 ar
    16    6   22 1
    17    7    8 ar
    18    8    9 ar
    19    8   16 1
    20    9   10 1
    21   10   11 2
    22   10   12 1
    23   12   13 1
    24   13   14 1
    25   13   44 1
    26   13   45 1
    27   14   15 1
    28   14   46 1
    29   14   47 1
    30   15   48 1
    31   15   49 1
    32   15   50 1
    33   16   21 ar
    34   16   17 ar
    35   17   18 ar
    36   17   51 1
    37   18   19 ar
    38   18   52 1
    39   19   20 ar
    40   19   53 1
    41   20   21 ar
    42   20   54 1
    43   21   55 1
    44   22   23 1
    45   22   56 1
    46   22   57 1
    47   23   24 1
    48   23   58 1
    49   23   59 1
    50   24   25 1
    51   25   26 1
    52   25   60 1
    53   25   61 1
    54   26   31 ar
    55   26   27 ar
    56   27   28 ar
    57   27   62 1
    58   28   29 ar
    59   28   63 1
    60   29   30 ar
    61   29   64 1
    62   30   31 ar
    63   30   65 1
    64   31   66 1
    65   32   33 2
    66   32   34 1
    67   34   35 1
    68   35   36 1
    69   35   67 1
    70   35   68 1
    71   36   69 1
    72   36   70 1
    73   36   71 1
