@<TRIPOS>MOLECULE
CHEMBL489592
   48    50     0     0     0
SMALL
USER_CHARGES

@<TRIPOS>ATOM
      1 C1         -0.0187    1.5258    0.0104 C.3       1 <0>        -0.1675
      2 C2          0.0021   -0.0041    0.0020 C.3       1 <0>         0.1163
      3 N1         -1.3723   -0.5112    0.0124 N.am      1 <0>        -0.5089
      4 C3         -2.0125   -0.7519    1.2189 C.2       1 <0>         0.3261
      5 C4         -3.3196   -1.2335    1.1995 C.2       1 <0>        -0.1524
      6 C5         -3.9494   -1.4607   -0.0413 C.2       1 <0>         0.5947
      7 O1         -5.0921   -1.8812   -0.0842 O.2       1 <0>        -0.5141
      8 N2         -3.2730   -1.2069   -1.1805 N.am      1 <0>        -0.5494
      9 C6         -2.0140   -0.7375   -1.1491 C.2       1 <0>         0.7080
     10 O2         -1.4380   -0.5162   -2.1969 O.2       1 <0>        -0.5319
     11 C7         -3.9230   -1.4413   -2.4724 C.3       1 <0>         0.1108
     12 C8         -4.6480   -0.1694   -2.9167 C.3       1 <0>        -0.1666
     13 N3         -3.7044   -1.3810    2.5192 N.pl3     1 <0>        -0.4105
     14 C9         -2.6409   -0.9923    3.2846 C.2       1 <0>         0.3240
     15 N4         -1.6474   -0.6228    2.4916 N.2       1 <0>        -0.4899
     16 C10        -2.6062   -0.9851    4.7457 C.2       1 <0>        -0.1225
     17 C11        -1.4891   -0.5763    5.3951 C.2       1 <0>        -0.0323
     18 C12        -1.4557   -0.5693    6.8078 C.2       1 <0>        -0.1458
     19 C13        -0.3414   -0.1615    7.4554 C.2       1 <0>        -0.0644
     20 C14        -0.3066   -0.1542    8.9259 C.ar      1 <0>        -0.0719
     21 C15        -1.4225   -0.5739    9.6578 C.ar      1 <0>        -0.1065
     22 C16        -1.3818   -0.5641   11.0359 C.ar      1 <0>        -0.1212
     23 C17        -0.2412   -0.1399   11.6953 C.ar      1 <0>        -0.1122
     24 C18         0.8669    0.2773   10.9785 C.ar      1 <0>        -0.1212
     25 C19         0.8446    0.2671    9.5999 C.ar      1 <0>        -0.1011
     26 C20        -5.0013   -1.8603    3.0035 C.3       1 <0>         0.0701
     27 H1          1.0039    1.9031    0.0027 H         1 <0>         0.0779
     28 H2         -0.5459    1.8868   -0.8726 H         1 <0>         0.0611
     29 H3         -0.5289    1.8773    0.9072 H         1 <0>         0.0609
     30 H4          0.5123   -0.3556   -0.8948 H         1 <0>         0.1000
     31 H5          0.5293   -0.3651    0.8851 H         1 <0>         0.0978
     32 H6         -3.1706   -1.7087   -3.2144 H         1 <0>         0.1028
     33 H7         -4.6423   -2.2544   -2.3749 H         1 <0>         0.1011
     34 H8         -5.1316   -0.3438   -3.8779 H         1 <0>         0.0795
     35 H9         -5.4004    0.0980   -2.1747 H         1 <0>         0.0601
     36 H10        -3.9287    0.6437   -3.0142 H         1 <0>         0.0623
     37 H11        -3.4709   -1.3055    5.3080 H         1 <0>         0.1402
     38 H12        -0.6245   -0.2558    4.8328 H         1 <0>         0.1336
     39 H13        -2.3203   -0.8897    7.3700 H         1 <0>         0.1227
     40 H14         0.5232    0.1589    6.8931 H         1 <0>         0.1278
     41 H15        -2.3135   -0.9045    9.1447 H         1 <0>         0.1263
     42 H16        -2.2425   -0.8878   11.6024 H         1 <0>         0.1249
     43 H17        -0.2157   -0.1342   12.7750 H         1 <0>         0.1238
     44 H18         1.7531    0.6071   11.5003 H         1 <0>         0.1255
     45 H19         1.7118    0.5880    9.0419 H         1 <0>         0.1268
     46 H20        -4.9682   -2.9436    3.1192 H         1 <0>         0.0876
     47 H21        -5.2231   -1.3987    3.9657 H         1 <0>         0.0958
     48 H22        -5.7777   -1.5952    2.2858 H         1 <0>         0.1019
@<TRIPOS>BOND
     1    1    2 1
     2    1   27 1
     3    1   28 1
     4    1   29 1
     5    2    3 1
     6    2   30 1
     7    2   31 1
     8    3    9 am
     9    3    4 1
    10    4   15 1
    11    4    5 2
    12    5    6 1
    13    5   13 1
    14    6    7 2
    15    6    8 am
    16    8    9 am
    17    8   11 1
    18    9   10 2
    19   11   12 1
    20   11   32 1
    21   11   33 1
    22   12   34 1
    23   12   35 1
    24   12   36 1
    25   13   14 1
    26   13   26 1
    27   14   15 2
    28   14   16 1
    29   16   17 2
    30   16   37 1
    31   17   18 1
    32   17   38 1
    33   18   19 2
    34   18   39 1
    35   19   20 1
    36   19   40 1
    37   20   25 ar
    38   20   21 ar
    39   21   22 ar
    40   21   41 1
    41   22   23 ar
    42   22   42 1
    43   23   24 ar
    44   23   43 1
    45   24   25 ar
    46   24   44 1
    47   25   45 1
    48   26   46 1
    49   26   47 1
    50   26   48 1
