@<TRIPOS>MOLECULE
CHEMBL363377
   39    42     0     0     0
SMALL
USER_CHARGES

@<TRIPOS>ATOM
      1 C1         -0.0167    1.3781    0.0096 C.ar      1 <0>        -0.1097
      2 C2          1.1709    2.0855    0.0021 C.ar      1 <0>        -0.1217
      3 C3          2.3773    1.4107   -0.0130 C.ar      1 <0>        -0.0986
      4 C4          2.3960    0.0285   -0.0201 C.ar      1 <0>        -0.1128
      5 C5          1.2084   -0.6789   -0.0117 C.ar      1 <0>        -0.0986
      6 C6          0.0021   -0.0041    0.0020 C.ar      1 <0>        -0.1217
      7 C7          3.7112   -0.7071   -0.0376 C.3       1 <0>         0.1601
      8 N1          4.1518   -0.9524    1.3379 N.am      1 <0>        -0.7020
      9 C8          5.3108   -1.6005    1.5688 C.2       1 <0>         0.5883
     10 O1          5.9906   -1.9815    0.6356 O.2       1 <0>        -0.5263
     11 C9          5.7550   -1.8477    2.9554 C.2       1 <0>         0.0673
     12 C10         6.9321   -2.4995    3.1694 C.2       1 <0>         0.0729
     13 N2          7.3647   -2.7403    4.4348 N.pl3     1 <0>        -0.2544
     14 C11         6.6073   -2.3215    5.4958 C.2       1 <0>         0.2199
     15 C12         5.3496   -1.6245    5.2252 C.2       1 <0>         0.4832
     16 N3          4.9900   -1.4190    3.9752 N.2       1 <0>        -0.5095
     17 N4          4.5510   -1.1836    6.2685 N.pl3     1 <0>        -0.8036
     18 N5          7.2366   -2.6711    6.6021 N.2       1 <0>        -0.4917
     19 C13         8.3731   -3.3005    6.2938 C.2       1 <0>         0.3298
     20 N6          8.4929   -3.3657    4.9774 N.2       1 <0>        -0.2754
     21 C14         9.3444   -3.8389    7.2688 C.2       1 <0>         0.0416
     22 C15        10.5069   -4.4764    6.9680 C.2       1 <0>        -0.1363
     23 C16        11.1129   -4.8152    8.1939 C.2       1 <0>        -0.2180
     24 C17        10.2989   -4.3724    9.1724 C.2       1 <0>        -0.0054
     25 O2          9.2345   -3.7780    8.6100 O.3       1 <0>        -0.1540
     26 H1         -0.9591    1.9053    0.0259 H         1 <0>         0.1239
     27 H2          1.1563    3.1654    0.0076 H         1 <0>         0.1249
     28 H3          3.3051    1.9634   -0.0196 H         1 <0>         0.1246
     29 H4          1.2231   -1.7588   -0.0176 H         1 <0>         0.1246
     30 H5         -0.9258   -0.5567    0.0082 H         1 <0>         0.1249
     31 H6          3.5884   -1.6586   -0.5549 H         1 <0>         0.0820
     32 H7          4.4573   -0.1052   -0.5563 H         1 <0>         0.0820
     33 H8          3.6095   -0.6484    2.0824 H         1 <0>         0.4142
     34 H9          7.5249   -2.8272    2.3282 H         1 <0>         0.1943
     35 H10         4.8244   -1.3363    7.1866 H         1 <0>         0.4247
     36 H11         3.7186   -0.7223    6.0807 H         1 <0>         0.4207
     37 H12        10.8913   -4.6834    5.9802 H         1 <0>         0.1610
     38 H13        12.0520   -5.3324    8.3248 H         1 <0>         0.1601
     39 H14        10.4758   -4.4745   10.2330 H         1 <0>         0.2147
@<TRIPOS>BOND
     1    1    6 ar
     2    1    2 ar
     3    1   26 1
     4    2    3 ar
     5    2   27 1
     6    3    4 ar
     7    3   28 1
     8    4    5 ar
     9    4    7 1
    10    5    6 ar
    11    5   29 1
    12    6   30 1
    13    7    8 1
    14    7   31 1
    15    7   32 1
    16    8    9 am
    17    8   33 1
    18    9   10 2
    19    9   11 1
    20   11   16 1
    21   11   12 2
    22   12   13 1
    23   12   34 1
    24   13   20 1
    25   13   14 1
    26   14   15 1
    27   14   18 2
    28   15   16 2
    29   15   17 1
    30   17   35 1
    31   17   36 1
    32   18   19 1
    33   19   20 2
    34   19   21 1
    35   21   25 1
    36   21   22 2
    37   22   23 1
    38   22   37 1
    39   23   24 2
    40   23   38 1
    41   24   25 1
    42   24   39 1
