@<TRIPOS>MOLECULE
CHEMBL110047
   44    47     0     0     0
SMALL
USER_CHARGES

@<TRIPOS>ATOM
      1 C1          0.3107   -0.0165    5.6927 C.3       1 <0>         0.0311
      2 O1         -0.1981    0.0787    4.3608 O.3       1 <0>        -0.3855
      3 C2          0.5937   -0.6032    3.3860 C.3       1 <0>         0.0448
      4 C3         -0.0418   -0.4349    2.0044 C.3       1 <0>         0.1410
      5 H1          0.6082   -0.8654    1.2427 H         1 <0>         0.0947
      6 C4         -0.2729    1.0626    1.7119 C.3       1 <0>        -0.1265
      7 C5         -1.6384    1.0661    0.9752 C.3       1 <0>        -0.1314
      8 C6         -2.3884   -0.0761    1.7050 C.3       1 <0>         0.0997
      9 N1         -1.3543   -1.0966    1.9739 N.am      1 <0>        -0.6000
     10 C7         -1.5749   -2.4131    2.1601 C.2       1 <0>         0.5943
     11 O2         -0.6356   -3.1769    2.2721 O.2       1 <0>        -0.5183
     12 C8         -2.9570   -2.9276    2.2280 C.2       1 <0>        -0.0871
     13 C9         -3.4865   -3.6827    1.1544 C.2       1 <0>        -0.1548
     14 C10        -4.7647   -4.1518    1.2318 C.2       1 <0>         0.2519
     15 C11        -5.5394   -3.8756    2.3837 C.2       1 <0>         0.2558
     16 N2         -6.7801   -4.1959    2.7240 N.2       1 <0>        -0.5160
     17 C12        -7.0590   -3.6950    3.9295 C.2       1 <0>         0.3265
     18 N3         -6.0035   -3.0437    4.3866 N.2       1 <0>        -0.2945
     19 N4         -5.0045   -3.1439    3.4070 N.pl3     1 <0>        -0.2498
     20 C13        -3.7321   -2.6790    3.3382 C.2       1 <0>         0.0836
     21 C14        -8.3454   -3.8447    4.6407 C.2       1 <0>         0.0767
     22 C15        -8.6437   -3.3353    5.8655 C.2       1 <0>        -0.1410
     23 C16        -9.9686   -3.7180    6.1528 C.2       1 <0>        -0.1554
     24 C17       -10.4098   -4.4356    5.0991 C.2       1 <0>        -0.0103
     25 O3         -9.4284   -4.5048    4.1855 O.3       1 <0>        -0.1375
     26 Br1       -12.1273   -5.2092    4.9333 Br        1 <0>         0.0663
     27 N5         -5.3054   -4.8987    0.1820 N.pl3     1 <0>        -0.8459
     28 H2          1.3108    0.4154    5.7314 H         1 <0>         0.0419
     29 H3         -0.3461    0.5265    6.3723 H         1 <0>         0.0866
     30 H4          0.3557   -1.0641    5.9905 H         1 <0>         0.0407
     31 H5          1.5996   -0.1835    3.3768 H         1 <0>         0.0616
     32 H6          0.6445   -1.6630    3.6359 H         1 <0>         0.0639
     33 H7         -0.3336    1.6318    2.6395 H         1 <0>         0.0919
     34 H8          0.5138    1.4556    1.0678 H         1 <0>         0.0837
     35 H9         -2.1518    2.0183    1.1086 H         1 <0>         0.0880
     36 H10        -1.5121    0.8370   -0.0829 H         1 <0>         0.0775
     37 H11        -2.8163    0.2874    2.6393 H         1 <0>         0.0769
     38 H12        -3.1682   -0.4878    1.0644 H         1 <0>         0.0773
     39 H13        -2.8837   -3.8853    0.2815 H         1 <0>         0.1541
     40 H14        -3.3256   -2.1062    4.1586 H         1 <0>         0.1771
     41 H15        -7.9910   -2.7501    6.4963 H         1 <0>         0.1703
     42 H16       -10.5256   -3.4820    7.0474 H         1 <0>         0.1708
     43 H17        -4.7712   -5.0855   -0.6058 H         1 <0>         0.4114
     44 H18        -6.2150   -5.2305    0.2410 H         1 <0>         0.4137
@<TRIPOS>BOND
     1    1    2 1
     2    1   28 1
     3    1   29 1
     4    1   30 1
     5    2    3 1
     6    3    4 1
     7    3   31 1
     8    3   32 1
     9    4    5 1
    10    4    9 1
    11    4    6 1
    12    6    7 1
    13    6   33 1
    14    6   34 1
    15    7    8 1
    16    7   35 1
    17    7   36 1
    18    8    9 1
    19    8   37 1
    20    8   38 1
    21    9   10 am
    22   10   11 2
    23   10   12 1
    24   12   20 2
    25   12   13 1
    26   13   14 2
    27   13   39 1
    28   14   15 1
    29   14   27 1
    30   15   19 1
    31   15   16 2
    32   16   17 1
    33   17   18 2
    34   17   21 1
    35   18   19 1
    36   19   20 1
    37   20   40 1
    38   21   25 1
    39   21   22 2
    40   22   23 1
    41   22   41 1
    42   23   24 2
    43   23   42 1
    44   24   25 1
    45   24   26 1
    46   27   43 1
    47   27   44 1
