@<TRIPOS>MOLECULE
CHEMBL605166
   51    55     0     0     0
SMALL
USER_CHARGES

@<TRIPOS>ATOM
      1 C1         -0.0164    1.3567    0.0095 C.ar      1 <0>        -0.1159
      2 C2          1.1685    2.0906    0.0021 C.ar      1 <0>        -0.1109
      3 C3          2.3785    1.4679   -0.0132 C.ar      1 <0>        -0.1082
      4 C4          2.4378    0.0637   -0.0214 C.ar      1 <0>        -0.0354
      5 C5          1.2328   -0.6827   -0.0134 C.ar      1 <0>        -0.0550
      6 C6          0.0021   -0.0041    0.0020 C.ar      1 <0>        -0.1042
      7 C7          1.2920   -2.0865   -0.0210 C.ar      1 <0>        -0.0940
      8 C8          2.5022   -2.7094   -0.0359 C.ar      1 <0>        -0.1201
      9 C9          3.6867   -1.9757   -0.0433 C.ar      1 <0>        -0.0878
     10 C10         3.6681   -0.6146   -0.0367 C.ar      1 <0>        -0.1031
     11 C11         4.9603    0.1606   -0.0459 C.3       1 <0>         0.1698
     12 N1          5.2692    0.6111    1.3134 N.pl3     1 <0>        -0.6887
     13 C12         6.4158    1.3475    1.5546 C.ar      1 <0>         0.5068
     14 C13         6.7309    1.7830    2.8532 C.ar      1 <0>        -0.1059
     15 C14         7.9085    2.5271    3.0358 C.ar      1 <0>         0.3136
     16 N2          8.6763    2.7901    1.9830 N.ar      1 <0>        -0.5505
     17 C15         8.3413    2.3612    0.7846 C.ar      1 <0>         0.3651
     18 N3          7.2473    1.6547    0.5646 N.ar      1 <0>        -0.5882
     19 N4          7.9688    2.8173    4.3753 N.pl3     1 <0>        -0.4711
     20 C16         6.8691    2.2661    4.9627 C.2       1 <0>         0.2615
     21 N5          6.1441    1.6598    4.0680 N.2       1 <0>        -0.4592
     22 C17         9.0220    3.5793    5.0507 C.3       1 <0>         0.3140
     23 C18         8.6938    5.0886    5.0261 C.3       1 <0>         0.0796
     24 H1          7.6203    5.2443    4.9189 H         1 <0>         0.0853
     25 C19         9.1806    5.6012    6.4000 C.3       1 <0>         0.0471
     26 H2          8.3479    6.0102    6.9721 H         1 <0>         0.0869
     27 C20         9.7455    4.3409    7.0922 C.3       1 <0>         0.0505
     28 H3         10.8218    4.2716    6.9346 H         1 <0>         0.1001
     29 O1          9.0715    3.2352    6.4525 O.3       1 <0>        -0.3471
     30 C21         9.4279    4.3675    8.5886 C.3       1 <0>         0.0821
     31 O2         10.0569    3.2555    9.2289 O.3       1 <0>        -0.5634
     32 O3         10.2034    6.5852    6.2336 O.3       1 <0>        -0.5388
     33 O4          9.4008    5.7376    3.9674 O.3       1 <0>        -0.5257
     34 H4         -0.9634    1.8756    0.0259 H         1 <0>         0.1239
     35 H5          1.1258    3.1698    0.0084 H         1 <0>         0.1229
     36 H6          3.2883    2.0497   -0.0195 H         1 <0>         0.1267
     37 H7         -0.9241   -0.5595    0.0082 H         1 <0>         0.1281
     38 H8          0.3820   -2.6682   -0.0147 H         1 <0>         0.1291
     39 H9          2.5450   -3.7886   -0.0417 H         1 <0>         0.1268
     40 H10         4.6338   -2.4947   -0.0548 H         1 <0>         0.1265
     41 H11         5.7651   -0.4789   -0.4084 H         1 <0>         0.0821
     42 H12         4.8604    1.0257   -0.7015 H         1 <0>         0.0819
     43 H13         4.6700    0.3932    2.0445 H         1 <0>         0.4193
     44 H14         8.9871    2.5926   -0.0495 H         1 <0>         0.2051
     45 H15         6.6341    2.3240    6.0152 H         1 <0>         0.2222
     46 H16         9.9869    3.3914    4.5796 H         1 <0>         0.1235
     47 H17         9.8007    5.2952    9.0227 H         1 <0>         0.0670
     48 H18         8.3491    4.3069    8.7322 H         1 <0>         0.0609
     49 H19         9.8980    3.2088   10.1816 H         1 <0>         0.3867
     50 H20        10.5456    6.9413    7.0650 H         1 <0>         0.3873
     51 H21         9.2314    6.6877    3.9058 H         1 <0>         0.3906
@<TRIPOS>BOND
     1    1    6 ar
     2    1    2 ar
     3    1   34 1
     4    2    3 ar
     5    2   35 1
     6    3    4 ar
     7    3   36 1
     8    4   10 ar
     9    4    5 ar
    10    5    6 ar
    11    5    7 ar
    12    6   37 1
    13    7    8 ar
    14    7   38 1
    15    8    9 ar
    16    8   39 1
    17    9   10 ar
    18    9   40 1
    19   10   11 1
    20   11   12 1
    21   11   41 1
    22   11   42 1
    23   12   13 1
    24   12   43 1
    25   13   18 ar
    26   13   14 ar
    27   14   21 1
    28   14   15 ar
    29   15   16 ar
    30   15   19 1
    31   16   17 ar
    32   17   18 ar
    33   17   44 1
    34   19   20 1
    35   19   22 1
    36   20   21 2
    37   20   45 1
    38   22   29 1
    39   22   23 1
    40   22   46 1
    41   23   24 1
    42   23   25 1
    43   23   33 1
    44   25   26 1
    45   25   27 1
    46   25   32 1
    47   27   28 1
    48   27   29 1
    49   27   30 1
    50   30   31 1
    51   30   47 1
    52   30   48 1
    53   31   49 1
    54   32   50 1
    55   33   51 1
