@<TRIPOS>MOLECULE
CHEMBL607615
   55    58     0     0     0
SMALL
USER_CHARGES

@<TRIPOS>ATOM
      1 C1         -0.0164    1.3599    0.0095 C.2       1 <0>         0.2573
      2 N1          1.2003    1.8205    0.0004 N.2       1 <0>        -0.4523
      3 C2          2.0747    0.7847   -0.0135 C.ar      1 <0>        -0.1382
      4 C3          3.4762    0.6765   -0.0275 C.ar      1 <0>         0.5427
      5 N2          4.0192   -0.5358   -0.0392 N.ar      1 <0>        -0.6301
      6 C4          3.2640   -1.6252   -0.0378 C.ar      1 <0>         0.5705
      7 N3          1.9440   -1.5694   -0.0249 N.ar      1 <0>        -0.5558
      8 C5          1.3163   -0.3974   -0.0126 C.ar      1 <0>         0.3518
      9 N4          0.0021   -0.0041    0.0020 N.pl3     1 <0>        -0.4702
     10 C6         -1.1670   -0.8869    0.0089 C.3       1 <0>         0.3134
     11 C7         -1.5542   -1.2553    1.4583 C.3       1 <0>         0.0789
     12 H1         -1.1954   -0.4968    2.1540 H         1 <0>         0.0859
     13 C8         -3.0989   -1.2842    1.4384 C.3       1 <0>         0.0472
     14 H2         -3.5037   -0.5400    2.1242 H         1 <0>         0.0871
     15 C9         -3.4622   -0.9299   -0.0207 C.3       1 <0>         0.0503
     16 H3         -3.6138   -1.8375   -0.6051 H         1 <0>         0.1001
     17 O1         -2.3213   -0.1968   -0.5174 O.3       1 <0>        -0.3465
     18 C10        -4.7178   -0.0565   -0.0599 C.3       1 <0>         0.0823
     19 O2         -5.1032    0.1629   -1.4183 O.3       1 <0>        -0.5634
     20 O3         -3.5797   -2.5872    1.7747 O.3       1 <0>        -0.5386
     21 O4         -1.0311   -2.5390    1.8055 O.3       1 <0>        -0.5247
     22 O5          3.8669   -2.8386   -0.0506 O.3       1 <0>        -0.2833
     23 C11         5.2958   -2.8529   -0.0648 C.3       1 <0>         0.0765
     24 C12         5.7912   -4.3004   -0.0778 C.3       1 <0>        -0.1171
     25 C13         7.3210   -4.3158   -0.0930 C.3       1 <0>        -0.0809
     26 C14         7.8242   -3.7040   -1.4019 C.3       1 <0>        -0.1200
     27 C15         9.3541   -3.7193   -1.4171 C.3       1 <0>        -0.1200
     28 C16         9.8508   -5.1621   -1.3044 C.3       1 <0>        -0.1214
     29 C17         9.3476   -5.7739    0.0046 C.3       1 <0>        -0.1200
     30 C18         7.8177   -5.7585    0.0198 C.3       1 <0>        -0.1136
     31 N5          4.2726    1.8079   -0.0295 N.pl3     1 <0>        -0.8125
     32 H4         -0.9091    1.9676    0.0254 H         1 <0>         0.2238
     33 H5         -0.9654   -1.7869   -0.5722 H         1 <0>         0.1242
     34 H6         -5.5266   -0.5590    0.4706 H         1 <0>         0.0668
     35 H7         -4.5095    0.9008    0.4179 H         1 <0>         0.0611
     36 H8         -5.8940    0.7102   -1.5193 H         1 <0>         0.3865
     37 H9         -4.5438   -2.6622    1.7773 H         1 <0>         0.3870
     38 H10        -1.2445   -2.8203    2.7057 H         1 <0>         0.3903
     39 H11         5.6555   -2.3378   -0.9555 H         1 <0>         0.0729
     40 H12         5.6731   -2.3477    0.8244 H         1 <0>         0.0698
     41 H13         5.4315   -4.8156    0.8129 H         1 <0>         0.0756
     42 H14         5.4139   -4.8056   -0.9669 H         1 <0>         0.0754
     43 H15         7.6986   -3.7347    0.7484 H         1 <0>         0.0739
     44 H16         7.4467   -4.2850   -2.2433 H         1 <0>         0.0641
     45 H17         7.4704   -2.6762   -1.4823 H         1 <0>         0.0642
     46 H18         9.7126   -3.2835   -2.3497 H         1 <0>         0.0613
     47 H19         9.7316   -3.1383   -0.5757 H         1 <0>         0.0615
     48 H20         9.4732   -5.7431   -2.1458 H         1 <0>         0.0613
     49 H21        10.9407   -5.1730   -1.3152 H         1 <0>         0.0603
     50 H22         9.7015   -6.8017    0.0849 H         1 <0>         0.0620
     51 H23         9.7251   -5.1928    0.8460 H         1 <0>         0.0615
     52 H24         7.4593   -6.1944    0.9523 H         1 <0>         0.0636
     53 H25         7.4402   -6.3396   -0.8216 H         1 <0>         0.0641
     54 H26         3.8649    2.6880   -0.0212 H         1 <0>         0.4217
     55 H27         5.2386    1.7210   -0.0392 H         1 <0>         0.4111
@<TRIPOS>BOND
     1    1    9 1
     2    1    2 2
     3    1   32 1
     4    2    3 1
     5    3    8 ar
     6    3    4 ar
     7    4    5 ar
     8    4   31 1
     9    5    6 ar
    10    6    7 ar
    11    6   22 1
    12    7    8 ar
    13    8    9 1
    14    9   10 1
    15   10   17 1
    16   10   11 1
    17   10   33 1
    18   11   12 1
    19   11   13 1
    20   11   21 1
    21   13   14 1
    22   13   15 1
    23   13   20 1
    24   15   16 1
    25   15   17 1
    26   15   18 1
    27   18   19 1
    28   18   34 1
    29   18   35 1
    30   19   36 1
    31   20   37 1
    32   21   38 1
    33   22   23 1
    34   23   24 1
    35   23   39 1
    36   23   40 1
    37   24   25 1
    38   24   41 1
    39   24   42 1
    40   25   30 1
    41   25   26 1
    42   25   43 1
    43   26   27 1
    44   26   44 1
    45   26   45 1
    46   27   28 1
    47   27   46 1
    48   27   47 1
    49   28   29 1
    50   28   48 1
    51   28   49 1
    52   29   30 1
    53   29   50 1
    54   29   51 1
    55   30   52 1
    56   30   53 1
    57   31   54 1
    58   31   55 1
