@<TRIPOS>MOLECULE
CHEMBL605241
   61    64     0     0     0
SMALL
USER_CHARGES

@<TRIPOS>ATOM
      1 C1         -0.0187    1.5258    0.0104 C.3       1 <0>        -0.1679
      2 C2          0.0021   -0.0041    0.0020 C.3       1 <0>         0.1136
      3 N1         -1.3723   -0.5112    0.0124 N.am      1 <0>        -0.7272
      4 C3         -1.6006   -1.8394    0.0075 C.2       1 <0>         0.5161
      5 O1         -0.6682   -2.6149   -0.0056 O.2       1 <0>        -0.5034
      6 C4         -3.0144   -2.3611    0.0182 C.3       1 <0>         0.0316
      7 H1         -3.5805   -1.9494   -0.8174 H         1 <0>         0.1225
      8 C5         -3.7084   -2.0293    1.3638 C.3       1 <0>         0.0511
      9 H2         -3.0081   -2.1165    2.1945 H         1 <0>         0.0953
     10 C6         -4.8001   -3.1239    1.4442 C.3       1 <0>         0.0825
     11 H3         -4.8843   -3.5048    2.4620 H         1 <0>         0.0903
     12 C7         -4.2978   -4.2288    0.4946 C.3       1 <0>         0.3133
     13 O2         -3.0242   -3.8042   -0.0230 O.3       1 <0>        -0.3263
     14 N2         -4.1443   -5.4862    1.2305 N.pl3     1 <0>        -0.4735
     15 C8         -2.9966   -5.9535    1.7989 C.2       1 <0>         0.2712
     16 N3         -3.2189   -7.1007    2.3722 N.2       1 <0>        -0.4565
     17 C9         -4.5191   -7.4425    2.2093 C.ar      1 <0>        -0.1014
     18 C10        -5.1309   -6.4075    1.4794 C.ar      1 <0>         0.3138
     19 N4         -6.4223   -6.4970    1.1879 N.ar      1 <0>        -0.5327
     20 C11        -7.1314   -7.5463    1.5809 C.ar      1 <0>         0.5010
     21 N5         -6.5941   -8.5452    2.2757 N.ar      1 <0>        -0.5714
     22 C12        -5.3078   -8.5393    2.6016 C.ar      1 <0>         0.5155
     23 N6         -4.7575   -9.5824    3.3259 N.pl3     1 <0>        -0.8134
     24 C13        -8.5226   -7.6058    1.2465 C.1       1 <0>        -0.1163
     25 C14        -9.6631   -7.6546    0.9724 C.1       1 <0>        -0.0834
     26 C15       -11.0931   -7.7158    0.6287 C.3       1 <0>        -0.0074
     27 C16       -11.6962   -9.0076    1.1838 C.3       1 <0>         0.0656
     28 O3        -13.0844   -9.0670    0.8502 O.3       1 <0>        -0.3654
     29 C17       -13.7465  -10.2412    1.3246 C.3       1 <0>         0.2582
     30 C18       -15.2435  -10.1414    1.0201 C.3       1 <0>        -0.1411
     31 C19       -15.9365  -11.4287    1.4771 C.3       1 <0>        -0.1212
     32 C20       -15.2798  -12.6242    0.7800 C.3       1 <0>        -0.1614
     33 C21       -13.7814  -12.6281    1.0938 C.3       1 <0>         0.0717
     34 O4        -13.2045  -11.3908    0.6714 O.3       1 <0>        -0.4061
     35 O5         -6.0569   -2.6106    0.9981 O.3       1 <0>        -0.5310
     36 O6         -4.2936   -0.7261    1.3280 O.3       1 <0>        -0.5360
     37 H4          1.0039    1.9031    0.0027 H         1 <0>         0.0792
     38 H5         -0.5459    1.8868   -0.8726 H         1 <0>         0.0645
     39 H6         -0.5289    1.8773    0.9072 H         1 <0>         0.0637
     40 H7          0.5123   -0.3556   -0.8948 H         1 <0>         0.0731
     41 H8          0.5293   -0.3651    0.8851 H         1 <0>         0.0728
     42 H9         -2.1181    0.1091    0.0229 H         1 <0>         0.3979
     43 H10        -5.0029   -4.3610   -0.3260 H         1 <0>         0.1328
     44 H11        -2.0432   -5.4467    1.7763 H         1 <0>         0.2274
     45 H12        -3.8185   -9.5621    3.5683 H         1 <0>         0.4215
     46 H13        -5.3108  -10.3336    3.5911 H         1 <0>         0.4124
     47 H14       -11.6080   -6.8586    1.0625 H         1 <0>         0.1051
     48 H15       -11.2073   -7.6979   -0.4552 H         1 <0>         0.1066
     49 H16       -11.1812   -9.8648    0.7500 H         1 <0>         0.0680
     50 H17       -11.5819   -9.0255    2.2677 H         1 <0>         0.0568
     51 H18       -13.5996  -10.3315    2.4009 H         1 <0>         0.0549
     52 H19       -15.6678   -9.2904    1.5530 H         1 <0>         0.0823
     53 H20       -15.3892  -10.0103   -0.0522 H         1 <0>         0.0821
     54 H21       -15.8334  -11.5347    2.5570 H         1 <0>         0.0664
     55 H22       -16.9931  -11.3877    1.2126 H         1 <0>         0.0765
     56 H23       -15.7300  -13.5489    1.1412 H         1 <0>         0.0782
     57 H24       -15.4262  -12.5433   -0.2971 H         1 <0>         0.0753
     58 H25       -13.6351  -12.7497    2.1671 H         1 <0>         0.0522
     59 H26       -13.3015  -13.4520    0.5657 H         1 <0>         0.0985
     60 H27        -6.3912   -1.8738    1.5276 H         1 <0>         0.3971
     61 H28        -3.6563   -0.0124    1.1882 H         1 <0>         0.3843
@<TRIPOS>BOND
     1    1    2 1
     2    1   37 1
     3    1   38 1
     4    1   39 1
     5    2    3 1
     6    2   40 1
     7    2   41 1
     8    3    4 am
     9    3   42 1
    10    4    5 2
    11    4    6 1
    12    6    7 1
    13    6   13 1
    14    6    8 1
    15    8    9 1
    16    8   10 1
    17    8   36 1
    18   10   11 1
    19   10   12 1
    20   10   35 1
    21   12   13 1
    22   12   14 1
    23   12   43 1
    24   14   18 1
    25   14   15 1
    26   15   16 2
    27   15   44 1
    28   16   17 1
    29   17   22 ar
    30   17   18 ar
    31   18   19 ar
    32   19   20 ar
    33   20   21 ar
    34   20   24 1
    35   21   22 ar
    36   22   23 1
    37   23   45 1
    38   23   46 1
    39   24   25 3
    40   25   26 1
    41   26   27 1
    42   26   47 1
    43   26   48 1
    44   27   28 1
    45   27   49 1
    46   27   50 1
    47   28   29 1
    48   29   34 1
    49   29   30 1
    50   29   51 1
    51   30   31 1
    52   30   52 1
    53   30   53 1
    54   31   32 1
    55   31   54 1
    56   31   55 1
    57   32   33 1
    58   32   56 1
    59   32   57 1
    60   33   34 1
    61   33   58 1
    62   33   59 1
    63   35   60 1
    64   36   61 1
