@<TRIPOS>MOLECULE
CHEMBL367572
   46    49     0     0     0
SMALL
USER_CHARGES

@<TRIPOS>ATOM
      1 C1         -0.0162    1.3433    0.0094 C.2       1 <0>        -0.2195
      2 C2          1.3252    1.7744   -0.0011 C.2       1 <0>        -0.1054
      3 C3          2.0962    0.6548   -0.0144 C.2       1 <0>         0.0020
      4 O1          1.2797   -0.4166   -0.0124 O.3       1 <0>        -0.1533
      5 C4          0.0021   -0.0041    0.0020 C.2       1 <0>         0.0228
      6 C5          3.5737    0.6193   -0.0287 C.2       1 <0>         0.3648
      7 N1          4.3193   -0.4866   -0.0471 N.2       1 <0>        -0.4372
      8 C6          5.6015   -0.1603   -0.0567 C.2       1 <0>         0.2091
      9 C7          6.7993   -0.9188   -0.0757 C.cat     1 <0>         0.5692
     10 N2          7.9622   -0.3011   -0.0808 N.pl3     1 <0>        -0.4971
     11 C8          8.0347    1.0410   -0.0677 C.2       1 <0>         0.2024
     12 C9          6.9046    1.8048   -0.0493 C.2       1 <0>         0.1340
     13 N3          5.6823    1.2048   -0.0439 N.pl3     1 <0>        -0.2566
     14 N4          4.3660    1.6803   -0.0311 N.2       1 <0>        -0.2202
     15 C10         9.3170    1.6784   -0.0728 C.1       1 <0>        -0.1944
     16 C11        10.3683    2.2010   -0.0770 C.1       1 <0>        -0.0390
     17 C12        11.6864    2.8561   -0.0822 C.3       1 <0>         0.1757
     18 C13        11.5012    4.3748   -0.0650 C.3       1 <0>         0.1117
     19 C14        10.7123    4.8064   -1.3028 C.3       1 <0>        -0.1460
     20 C15        10.5270    6.3250   -1.2856 C.3       1 <0>        -0.1149
     21 C16        11.8971    7.0060   -1.2910 C.3       1 <0>        -0.1245
     22 C17        12.6860    6.5744   -0.0532 C.3       1 <0>        -0.1186
     23 C18        12.8713    5.0558   -0.0704 C.3       1 <0>        -0.1021
     24 O2         10.7854    4.7540    1.1122 O.3       1 <0>        -0.5392
     25 O3         12.4233    2.4530    1.0739 O.3       1 <0>        -0.5242
     26 N5          6.7464   -2.3038   -0.0885 N.pl3     1 <0>        -0.7505
     27 H1         -0.8931    1.9736    0.0252 H         1 <0>         0.1681
     28 H2          1.6736    2.7966    0.0008 H         1 <0>         0.1663
     29 H3         -0.8667   -0.6456    0.0074 H         1 <0>         0.2228
     30 H4          6.9792    2.8821   -0.0386 H         1 <0>         0.2253
     31 H5         12.2324    2.5668   -0.9801 H         1 <0>         0.1468
     32 H6         11.2582    4.5171   -2.2008 H         1 <0>         0.0813
     33 H7          9.7362    4.3212   -1.2989 H         1 <0>         0.0556
     34 H8          9.9650    6.6325   -2.1674 H         1 <0>         0.0647
     35 H9          9.9810    6.6143   -0.3877 H         1 <0>         0.0694
     36 H10        12.4431    6.7167   -2.1890 H         1 <0>         0.0636
     37 H11        11.7651    8.0879   -1.2788 H         1 <0>         0.0677
     38 H12        13.6621    7.0596   -0.0571 H         1 <0>         0.0694
     39 H13        12.1401    6.8637    0.8447 H         1 <0>         0.0729
     40 H14        13.4333    4.7483    0.8114 H         1 <0>         0.0837
     41 H15        13.4173    4.7665   -0.9684 H         1 <0>         0.0820
     42 H16         9.9058    4.3585    1.1823 H         1 <0>         0.3675
     43 H17        11.9957    2.6789    1.9114 H         1 <0>         0.3899
     44 H18         5.8885   -2.7564   -0.0844 H         1 <0>         0.4578
     45 H19         7.5673   -2.8204   -0.1015 H         1 <0>         0.4394
     46 H20         8.7797   -0.8230   -0.0938 H         1 <0>         0.4569
@<TRIPOS>BOND
     1    1    5 2
     2    1    2 1
     3    1   27 1
     4    2    3 2
     5    2   28 1
     6    3    4 1
     7    3    6 1
     8    4    5 1
     9    5   29 1
    10    6   14 2
    11    6    7 1
    12    7    8 2
    13    8   13 1
    14    8    9 1
    15    9   10 2
    16    9   26 1
    17   10   11 1
    18   10   46 1
    19   11   12 2
    20   11   15 1
    21   12   13 1
    22   12   30 1
    23   13   14 1
    24   15   16 3
    25   16   17 1
    26   17   18 1
    27   17   25 1
    28   17   31 1
    29   18   23 1
    30   18   19 1
    31   18   24 1
    32   19   20 1
    33   19   32 1
    34   19   33 1
    35   20   21 1
    36   20   34 1
    37   20   35 1
    38   21   22 1
    39   21   36 1
    40   21   37 1
    41   22   23 1
    42   22   38 1
    43   22   39 1
    44   23   40 1
    45   23   41 1
    46   24   42 1
    47   25   43 1
    48   26   44 1
    49   26   45 1
