@<TRIPOS>MOLECULE
CHEMBL177229
   57    62     0     0     0
SMALL
USER_CHARGES

@<TRIPOS>ATOM
      1 C1         -0.8045   -0.0863   -0.0755 C.ar      1 <0>        -0.0948
      2 C2          0.2003    0.8793   -0.0587 C.ar      1 <0>        -0.0889
      3 C3          1.5142    0.5254   -0.0567 C.ar      1 <0>        -0.0913
      4 C4          1.8705   -0.8347   -0.0716 C.ar      1 <0>         0.1262
      5 C5          0.8470   -1.8147   -0.0885 C.ar      1 <0>        -0.0854
      6 C6         -0.4986   -1.4127   -0.0902 C.ar      1 <0>        -0.1010
      7 C7          1.2055   -3.1755   -0.1034 C.ar      1 <0>        -0.0384
      8 C8          2.5344   -3.4919   -0.1007 C.ar      1 <0>        -0.1688
      9 C9          3.4902   -2.4788   -0.0837 C.ar      1 <0>         0.0941
     10 N1          3.1526   -1.2120   -0.0695 N.ar      1 <0>        -0.4465
     11 C10         4.9511   -2.8486   -0.0805 C.3       1 <0>         0.0483
     12 N2          5.4626   -2.8353   -1.4576 N.4       1 <0>        -0.3825
     13 C11         4.8000   -3.8971   -2.2447 C.3       1 <0>        -0.0107
     14 C12         5.8993   -4.4263   -3.1992 C.3       1 <0>        -0.1447
     15 C13         7.1577   -4.3618   -2.2942 C.3       1 <0>        -0.1174
     16 C14         6.9143   -3.0930   -1.4502 C.3       1 <0>         0.0374
     17 H1          7.4431   -2.2477   -1.8905 H         1 <0>         0.1405
     18 C15         7.3950   -3.3218   -0.0158 C.3       1 <0>         0.0748
     19 N3          8.8472   -3.5149   -0.0125 N.2       1 <0>        -0.6293
     20 C16         9.5104   -3.7397    1.1761 C.2       1 <0>         0.5512
     21 N4         10.8355   -3.9088    1.1657 N.pl3     1 <0>        -0.5712
     22 C17        11.4957   -4.1255    2.2889 C.cat     1 <0>         0.7589
     23 N5         10.8118   -4.1760    3.4685 N.pl3     1 <0>        -0.4135
     24 C18         9.4525   -4.0013    3.4685 C.2       1 <0>         0.5541
     25 N6          8.8232   -3.7784    2.3058 N.2       1 <0>        -0.5846
     26 N7          9.0390   -4.0952    4.7215 N.2       1 <0>        -0.5243
     27 C19        10.0855   -4.3240    5.5250 C.2       1 <0>         0.4049
     28 N8         11.1873   -4.3807    4.8010 N.2       1 <0>        -0.3317
     29 C20        10.0174   -4.4870    6.9922 C.2       1 <0>         0.0164
     30 C21         8.8891   -4.4363    7.7490 C.2       1 <0>        -0.1091
     31 C22         9.2869   -4.6414    9.0849 C.2       1 <0>        -0.2214
     32 C23        10.6245   -4.8054    9.0777 C.2       1 <0>         0.0073
     33 O1         11.0616   -4.7174    7.8113 O.3       1 <0>        -0.1594
     34 N9         12.8549   -4.2984    2.2697 N.pl3     1 <0>        -0.7756
     35 H2         -1.8396    0.2218   -0.0722 H         1 <0>         0.1380
     36 H3         -0.0682    1.9253   -0.0476 H         1 <0>         0.1397
     37 H4          2.2805    1.2864   -0.0440 H         1 <0>         0.1415
     38 H5         -1.2862   -2.1516   -0.1031 H         1 <0>         0.1391
     39 H6          0.4510   -3.9481   -0.1161 H         1 <0>         0.1505
     40 H7          2.8437   -4.5266   -0.1115 H         1 <0>         0.1431
     41 H8          5.5068   -2.1288    0.5204 H         1 <0>         0.1504
     42 H9          5.0726   -3.8458    0.3425 H         1 <0>         0.1467
     43 H10         4.4513   -4.6944   -1.5884 H         1 <0>         0.1303
     44 H11         3.9687   -3.4835   -2.8156 H         1 <0>         0.1292
     45 H12         5.6905   -5.4515   -3.5049 H         1 <0>         0.1144
     46 H13         6.0088   -3.7762   -4.0672 H         1 <0>         0.0966
     47 H14         7.2191   -5.2433   -1.6559 H         1 <0>         0.0954
     48 H15         8.0604   -4.2569   -2.8961 H         1 <0>         0.1118
     49 H16         7.1424   -2.4549    0.5947 H         1 <0>         0.0689
     50 H17         6.9097   -4.2080    0.3930 H         1 <0>         0.0682
     51 H18         7.8824   -4.2705    7.3946 H         1 <0>         0.1653
     52 H19         8.6420   -4.6627    9.9509 H         1 <0>         0.1630
     53 H20        11.2418   -4.9830    9.9459 H         1 <0>         0.2173
     54 H21        13.3367   -4.2620    1.4286 H         1 <0>         0.4389
     55 H22        13.3354   -4.4573    3.0973 H         1 <0>         0.4507
     56 H23         5.2792   -1.9376   -1.8801 H         1 <0>         0.4277
     57 H24        11.3176   -3.8724    0.3248 H         1 <0>         0.4495
@<TRIPOS>BOND
     1    1    6 ar
     2    1    2 ar
     3    1   35 1
     4    2    3 ar
     5    2   36 1
     6    3    4 ar
     7    3   37 1
     8    4   10 ar
     9    4    5 ar
    10    5    6 ar
    11    5    7 ar
    12    6   38 1
    13    7    8 ar
    14    7   39 1
    15    8    9 ar
    16    8   40 1
    17    9   10 ar
    18    9   11 1
    19   11   12 1
    20   11   41 1
    21   11   42 1
    22   12   16 1
    23   12   13 1
    24   12   56 1
    25   13   14 1
    26   13   43 1
    27   13   44 1
    28   14   15 1
    29   14   45 1
    30   14   46 1
    31   15   16 1
    32   15   47 1
    33   15   48 1
    34   16   17 1
    35   16   18 1
    36   18   19 1
    37   18   49 1
    38   18   50 1
    39   19   20 1
    40   20   25 2
    41   20   21 1
    42   21   22 2
    43   21   57 1
    44   22   23 1
    45   22   34 1
    46   23   28 1
    47   23   24 1
    48   24   25 1
    49   24   26 2
    50   26   27 1
    51   27   28 2
    52   27   29 1
    53   29   33 1
    54   29   30 2
    55   30   31 1
    56   30   51 1
    57   31   32 2
    58   31   52 1
    59   32   33 1
    60   32   53 1
    61   34   54 1
    62   34   55 1
