@<TRIPOS>MOLECULE
CHEMBL281811
   40    42     0     0     0
SMALL
USER_CHARGES

@<TRIPOS>ATOM
      1 C1         -0.0178    1.4608    0.0101 C.3       1 <0>         0.0662
      2 N1          0.0021   -0.0041    0.0020 N.pl3     1 <0>        -0.4081
      3 C2          0.0086   -0.8192   -1.1121 C.2       1 <0>        -0.1572
      4 C3          0.0283   -2.1250   -0.6384 C.2       1 <0>         0.3193
      5 N2          0.0328   -2.0621    0.6956 N.2       1 <0>        -0.4880
      6 C4          0.0233   -0.8113    1.0805 C.2       1 <0>         0.2954
      7 C5          0.0306   -0.3446    2.5134 C.3       1 <0>        -0.0064
      8 C6          1.2935   -0.8554    3.2098 C.3       1 <0>        -0.1078
      9 C7          1.3009   -0.3815    4.6645 C.3       1 <0>        -0.1187
     10 C8          0.0657   -0.9263    5.3846 C.3       1 <0>        -0.1234
     11 C9         -1.1972   -0.4155    4.6882 C.3       1 <0>        -0.1187
     12 C10        -1.2046   -0.8893    3.2335 C.3       1 <0>        -0.1085
     13 N3          0.0392   -3.1673   -1.5511 N.am      1 <0>        -0.5099
     14 C11         0.0307   -2.9082   -2.8723 C.2       1 <0>         0.7075
     15 O1          0.0400   -3.8359   -3.6583 O.2       1 <0>        -0.5337
     16 N4          0.0117   -1.6498   -3.3444 N.am      1 <0>        -0.5521
     17 C12         0.0003   -0.5931   -2.5054 C.2       1 <0>         0.5950
     18 O2         -0.0172    0.5426   -2.9452 O.2       1 <0>        -0.5126
     19 C13         0.0032   -1.4222   -4.7916 C.3       1 <0>         0.0828
     20 C14         0.0604   -4.5537   -1.0779 C.3       1 <0>         0.0895
     21 H1          1.0048    1.8381    0.0023 H         1 <0>         0.0879
     22 H2         -0.5450    1.8219   -0.8730 H         1 <0>         0.1025
     23 H3         -0.5280    1.8123    0.9069 H         1 <0>         0.0961
     24 H4          0.0160    0.7450    2.5407 H         1 <0>         0.0929
     25 H5          1.3081   -1.9449    3.1825 H         1 <0>         0.0798
     26 H6          2.1735   -0.4673    2.6968 H         1 <0>         0.0641
     27 H7          2.2007   -0.7454    5.1606 H         1 <0>         0.0688
     28 H8          1.2864    0.7080    4.6918 H         1 <0>         0.0635
     29 H9          0.0803   -2.0158    5.3573 H         1 <0>         0.0660
     30 H10         0.0710   -0.5887    6.4210 H         1 <0>         0.0646
     31 H11        -2.0772   -0.8035    5.2012 H         1 <0>         0.0687
     32 H12        -1.2118    0.6741    4.7155 H         1 <0>         0.0634
     33 H13        -2.1044   -0.5254    2.7374 H         1 <0>         0.0640
     34 H14        -1.1901   -1.9789    3.2062 H         1 <0>         0.0801
     35 H15         0.0144   -2.3808   -5.3102 H         1 <0>         0.1058
     36 H16        -0.8955   -0.8703   -5.0673 H         1 <0>         0.0813
     37 H17         0.8843   -0.8460   -5.0739 H         1 <0>         0.0813
     38 H18        -0.9619   -4.9118   -0.9564 H         1 <0>         0.0731
     39 H19         0.5800   -5.1778   -1.8049 H         1 <0>         0.0934
     40 H20         0.5788   -4.6028   -0.1203 H         1 <0>         0.0919
@<TRIPOS>BOND
     1    1    2 1
     2    1   21 1
     3    1   22 1
     4    1   23 1
     5    2    6 1
     6    2    3 1
     7    3   17 1
     8    3    4 2
     9    4    5 1
    10    4   13 1
    11    5    6 2
    12    6    7 1
    13    7   12 1
    14    7    8 1
    15    7   24 1
    16    8    9 1
    17    8   25 1
    18    8   26 1
    19    9   10 1
    20    9   27 1
    21    9   28 1
    22   10   11 1
    23   10   29 1
    24   10   30 1
    25   11   12 1
    26   11   31 1
    27   11   32 1
    28   12   33 1
    29   12   34 1
    30   13   14 am
    31   13   20 1
    32   14   15 2
    33   14   16 am
    34   16   17 am
    35   16   19 1
    36   17   18 2
    37   19   35 1
    38   19   36 1
    39   19   37 1
    40   20   38 1
    41   20   39 1
    42   20   40 1
