@<TRIPOS>MOLECULE
CHEMBL486162
   56    59     0     0     0
SMALL
USER_CHARGES

@<TRIPOS>ATOM
      1 C1         -0.2154    1.5619   -0.8861 C.3       1 <0>        -0.0737
      2 C2         -0.0879    0.0797   -0.6451 C.2       1 <0>         0.0914
      3 C3         -0.2466   -0.9235   -1.6087 C.2       1 <0>        -0.2646
      4 C4         -0.0545   -2.1175   -1.0034 C.2       1 <0>         0.1210
      5 N1          0.2180   -1.8755    0.3060 N.pl3     1 <0>        -0.3189
      6 N2          0.1955   -0.4880    0.4985 N.2       1 <0>        -0.2613
      7 C5          0.4785   -2.8367    1.2827 C.ar      1 <0>         0.5977
      8 N3          0.5913   -2.4572    2.5439 N.ar      1 <0>        -0.5196
      9 C6          0.8392   -3.3464    3.5046 C.ar      1 <0>         0.2707
     10 C7          0.9792   -4.6899    3.1629 C.ar      1 <0>        -0.2431
     11 C8          0.8530   -5.0481    1.8219 C.ar      1 <0>         0.4337
     12 N4          0.6003   -4.1038    0.9218 N.ar      1 <0>        -0.5283
     13 N5          0.9846   -6.3766    1.4319 N.am      1 <0>        -0.6545
     14 C9          0.9662   -6.6997    0.1235 C.2       1 <0>         0.5010
     15 O1          0.7422   -5.8466   -0.7086 O.2       1 <0>        -0.4674
     16 C10         1.2239   -8.1213   -0.3052 C.3       1 <0>        -0.1723
     17 C11         0.9650   -2.9121    4.9180 C.ar      1 <0>         0.1999
     18 C12         0.8169   -1.5670    5.2411 C.ar      1 <0>        -0.1721
     19 C13         0.9358   -1.1714    6.5649 C.ar      1 <0>        -0.0376
     20 C14         1.1990   -2.1348    7.5229 C.ar      1 <0>        -0.2194
     21 C15         1.3360   -3.4644    7.1324 C.ar      1 <0>         0.4097
     22 N6          1.2122   -3.8115    5.8624 N.ar      1 <0>        -0.5249
     23 N7          1.6009   -4.4379    8.0884 N.pl3     1 <0>        -0.6115
     24 C16         1.9763   -5.8034    7.6915 C.3       1 <0>         0.1327
     25 C17         3.2556   -6.1934    8.4395 C.3       1 <0>         0.0382
     26 N8          3.0543   -5.9990    9.8816 N.3       1 <0>        -0.5427
     27 C18         2.8106   -4.5857   10.1999 C.3       1 <0>         0.0383
     28 C19         1.5190   -4.1282    9.5239 C.3       1 <0>         0.1278
     29 C20         4.1936   -6.5221   10.6474 C.3       1 <0>         0.0242
     30 C21        -0.1298   -3.4711   -1.6614 C.3       1 <0>        -0.0819
     31 H1          0.7558    1.9692   -1.1672 H         1 <0>         0.0814
     32 H2         -0.9301    1.7392   -1.6897 H         1 <0>         0.0820
     33 H3         -0.5640    2.0493    0.0244 H         1 <0>         0.0764
     34 H4         -0.4812   -0.7707   -2.6517 H         1 <0>         0.1584
     35 H5          1.1808   -5.4350    3.9182 H         1 <0>         0.1639
     36 H6          1.0896   -7.0705    2.1014 H         1 <0>         0.4255
     37 H7          0.4740   -8.7762    0.1384 H         1 <0>         0.0933
     38 H8          1.1684   -8.1888   -1.3917 H         1 <0>         0.1004
     39 H9          2.2158   -8.4269    0.0276 H         1 <0>         0.0933
     40 H10         0.6121   -0.8394    4.4697 H         1 <0>         0.1484
     41 H11         0.8256   -0.1334    6.8423 H         1 <0>         0.1409
     42 H12         1.2975   -1.8583    8.5623 H         1 <0>         0.1371
     43 H13         1.1745   -6.4941    7.9524 H         1 <0>         0.0694
     44 H14         2.1562   -5.8359    6.6169 H         1 <0>         0.0951
     45 H15         3.4874   -7.2401    8.2425 H         1 <0>         0.0869
     46 H16         4.0808   -5.5675    8.0998 H         1 <0>         0.0375
     47 H17         2.7196   -4.4665   11.2795 H         1 <0>         0.0894
     48 H18         3.6420   -3.9822    9.8356 H         1 <0>         0.0392
     49 H19         1.3967   -3.0537    9.6603 H         1 <0>         0.0891
     50 H20         0.6724   -4.6548    9.9644 H         1 <0>         0.0762
     51 H21         5.1028   -6.0008   10.3480 H         1 <0>         0.0260
     52 H22         4.0186   -6.3653   11.7118 H         1 <0>         0.0708
     53 H23         4.3046   -7.5885   10.4507 H         1 <0>         0.0711
     54 H24         0.8723   -3.7943   -1.9434 H         1 <0>         0.0848
     55 H25        -0.5609   -4.1902   -0.9649 H         1 <0>         0.0993
     56 H26        -0.7552   -3.4080   -2.5519 H         1 <0>         0.0714
@<TRIPOS>BOND
     1    1    2 1
     2    1   31 1
     3    1   32 1
     4    1   33 1
     5    2    6 2
     6    2    3 1
     7    3    4 2
     8    3   34 1
     9    4    5 1
    10    4   30 1
    11    5    6 1
    12    5    7 1
    13    7   12 ar
    14    7    8 ar
    15    8    9 ar
    16    9   10 ar
    17    9   17 1
    18   10   11 ar
    19   10   35 1
    20   11   12 ar
    21   11   13 1
    22   13   14 am
    23   13   36 1
    24   14   15 2
    25   14   16 1
    26   16   37 1
    27   16   38 1
    28   16   39 1
    29   17   22 ar
    30   17   18 ar
    31   18   19 ar
    32   18   40 1
    33   19   20 ar
    34   19   41 1
    35   20   21 ar
    36   20   42 1
    37   21   22 ar
    38   21   23 1
    39   23   28 1
    40   23   24 1
    41   24   25 1
    42   24   43 1
    43   24   44 1
    44   25   26 1
    45   25   45 1
    46   25   46 1
    47   26   27 1
    48   26   29 1
    49   27   28 1
    50   27   47 1
    51   27   48 1
    52   28   49 1
    53   28   50 1
    54   29   51 1
    55   29   52 1
    56   29   53 1
    57   30   54 1
    58   30   55 1
    59   30   56 1
