@<TRIPOS>MOLECULE
CHEMBL1088393
   56    60     0     0     0
SMALL
USER_CHARGES

@<TRIPOS>ATOM
      1 C1         -0.0167    1.3793    0.0096 C.ar      1 <0>        -0.0893
      2 C2          1.1685    2.0929    0.0021 C.ar      1 <0>        -0.1321
      3 C3          2.3774    1.4280   -0.0130 C.ar      1 <0>        -0.0639
      4 C4          2.4029    0.0334   -0.0207 C.ar      1 <0>        -0.0861
      5 C5          1.2046   -0.6805   -0.0131 C.ar      1 <0>        -0.0606
      6 C6          0.0021   -0.0041    0.0020 C.ar      1 <0>        -0.1269
      7 C7          3.6971   -0.6866   -0.0375 C.ar      1 <0>         0.3505
      8 C8          3.8486   -1.9058    0.6419 C.ar      1 <0>        -0.3503
      9 C9          5.0998   -2.5530    0.5958 C.ar      1 <0>         0.3019
     10 N1          6.0852   -1.9880   -0.0857 N.ar      1 <0>        -0.5596
     11 C10         5.9018   -0.8322   -0.7159 C.ar      1 <0>         0.6067
     12 N2          4.7420   -0.1938   -0.7025 N.ar      1 <0>        -0.5657
     13 N3          6.9560   -0.2807   -1.4132 N.pl3     1 <0>        -0.7997
     14 C11         5.0104   -3.8100    1.3815 C.ar      1 <0>        -0.0342
     15 C12         5.9428   -4.7994    1.6517 C.ar      1 <0>        -0.0096
     16 C13         5.5851   -5.8998    2.4366 C.ar      1 <0>        -0.1231
     17 C14         4.2929   -6.0034    2.9471 C.ar      1 <0>        -0.0717
     18 C15         3.3596   -5.0165    2.6787 C.ar      1 <0>        -0.0582
     19 C16         3.7089   -3.9211    1.9003 C.ar      1 <0>        -0.1077
     20 C17         2.9387   -2.7304    1.4529 C.2       1 <0>         0.4599
     21 O1          1.7769   -2.4847    1.7085 O.2       1 <0>        -0.3997
     22 C18         6.5803   -6.9563    2.7252 C.2       1 <0>         0.5723
     23 O2          7.7077   -6.8670    2.2801 O.2       1 <0>        -0.5101
     24 N4          6.2366   -8.0174    3.4817 N.am      1 <0>        -0.7302
     25 C19         7.2219   -9.0632    3.7674 C.3       1 <0>         0.0960
     26 C20         6.5799  -10.1442    4.6394 C.3       1 <0>        -0.0223
     27 N5          7.5679  -11.1929    4.9259 N.4       1 <0>        -0.3816
     28 C21         7.9380  -11.8719    3.6765 C.3       1 <0>        -0.0517
     29 C22         8.9676  -12.9638    3.9776 C.3       1 <0>         0.0364
     30 O3          8.4193  -13.8790    4.9303 O.3       1 <0>        -0.3556
     31 C23         8.0209  -13.2604    6.1568 C.3       1 <0>         0.0355
     32 C24         6.9896  -12.1689    5.8597 C.3       1 <0>        -0.0426
     33 H1         -0.9604    1.9042    0.0260 H         1 <0>         0.1285
     34 H2          1.1475    3.1727    0.0078 H         1 <0>         0.1303
     35 H3          3.3020    1.9861   -0.0192 H         1 <0>         0.1303
     36 H4          1.2180   -1.7604   -0.0194 H         1 <0>         0.1331
     37 H5         -0.9264   -0.5556    0.0083 H         1 <0>         0.1299
     38 H6          7.8123   -0.7356   -1.4375 H         1 <0>         0.4211
     39 H7          6.8411    0.5622   -1.8793 H         1 <0>         0.4235
     40 H8          6.9446   -4.7206    1.2560 H         1 <0>         0.1547
     41 H9          4.0187   -6.8547    3.5526 H         1 <0>         0.1393
     42 H10         2.3585   -5.0988    3.0754 H         1 <0>         0.1520
     43 H11         5.3368   -8.0886    3.8370 H         1 <0>         0.4089
     44 H12         7.5631   -9.5063    2.8318 H         1 <0>         0.0927
     45 H13         8.0711   -8.6282    4.2944 H         1 <0>         0.0934
     46 H14         6.2387   -9.7011    5.5750 H         1 <0>         0.1420
     47 H15         5.7307  -10.5792    4.1125 H         1 <0>         0.1400
     48 H16         7.0509  -12.3215    3.2304 H         1 <0>         0.1422
     49 H17         8.3672  -11.1487    2.9830 H         1 <0>         0.1455
     50 H18         9.2115  -13.4974    3.0589 H         1 <0>         0.1439
     51 H19         9.8704  -12.5101    4.3865 H         1 <0>         0.0833
     52 H20         7.5797  -14.0085    6.8153 H         1 <0>         0.1438
     53 H21         8.8913  -12.8168    6.6403 H         1 <0>         0.0827
     54 H22         6.7147  -11.6663    6.7870 H         1 <0>         0.1448
     55 H23         6.1028  -12.6185    5.4129 H         1 <0>         0.1411
     56 H24         8.3892  -10.7775    5.3393 H         1 <0>         0.4265
@<TRIPOS>BOND
     1    1    6 ar
     2    1    2 ar
     3    1   33 1
     4    2    3 ar
     5    2   34 1
     6    3    4 ar
     7    3   35 1
     8    4    5 ar
     9    4    7 1
    10    5    6 ar
    11    5   36 1
    12    6   37 1
    13    7   12 ar
    14    7    8 ar
    15    8   20 1
    16    8    9 ar
    17    9   10 ar
    18    9   14 1
    19   10   11 ar
    20   11   12 ar
    21   11   13 1
    22   13   38 1
    23   13   39 1
    24   14   19 ar
    25   14   15 ar
    26   15   16 ar
    27   15   40 1
    28   16   17 ar
    29   16   22 1
    30   17   18 ar
    31   17   41 1
    32   18   19 ar
    33   18   42 1
    34   19   20 1
    35   20   21 2
    36   22   23 2
    37   22   24 am
    38   24   25 1
    39   24   43 1
    40   25   26 1
    41   25   44 1
    42   25   45 1
    43   26   27 1
    44   26   46 1
    45   26   47 1
    46   27   32 1
    47   27   28 1
    48   27   56 1
    49   28   29 1
    50   28   48 1
    51   28   49 1
    52   29   30 1
    53   29   50 1
    54   29   51 1
    55   30   31 1
    56   31   32 1
    57   31   52 1
    58   31   53 1
    59   32   54 1
    60   32   55 1
