@<TRIPOS>MOLECULE
CHEMBL605265
   46    49     0     0     0
SMALL
USER_CHARGES

@<TRIPOS>ATOM
      1 C1         -0.0187    1.5258    0.0104 C.3       1 <0>        -0.1680
      2 C2          0.0021   -0.0041    0.0020 C.3       1 <0>         0.1136
      3 N1          0.6878   -0.4765   -1.2033 N.am      1 <0>        -0.7271
      4 C3          0.8268   -1.7986   -1.4250 C.2       1 <0>         0.5162
      5 O1          0.3843   -2.5972   -0.6267 O.2       1 <0>        -0.5035
      6 C4          1.5322   -2.2846   -2.6649 C.3       1 <0>         0.0315
      7 H1          2.5323   -1.8560   -2.7290 H         1 <0>         0.1229
      8 C5          0.7085   -1.9402   -3.9319 C.3       1 <0>         0.0510
      9 H2         -0.3595   -2.0480   -3.7427 H         1 <0>         0.0954
     10 C6          1.2015   -3.0074   -4.9392 C.3       1 <0>         0.0821
     11 H3          0.3680   -3.3897   -5.5285 H         1 <0>         0.0907
     12 C7          1.7901   -4.1212   -4.0517 C.3       1 <0>         0.3122
     13 O2          1.5952   -3.7270   -2.6817 O.3       1 <0>        -0.3262
     14 N2          1.0956   -5.3847   -4.3118 N.pl3     1 <0>        -0.4718
     15 C8          0.0370   -5.8827   -3.6117 C.2       1 <0>         0.2758
     16 N3         -0.3309   -7.0259   -4.1141 N.2       1 <0>        -0.4566
     17 C9          0.4646   -7.3344   -5.1651 C.ar      1 <0>        -0.0926
     18 C10         1.3874   -6.2820   -5.3090 C.ar      1 <0>         0.3115
     19 N4          2.2867   -6.3381   -6.2822 N.ar      1 <0>        -0.5216
     20 C11         2.3173   -7.3725   -7.1148 C.ar      1 <0>         0.4895
     21 N5          1.4604   -8.3879   -7.0161 N.ar      1 <0>        -0.5660
     22 C12         0.5353   -8.4133   -6.0661 C.ar      1 <0>         0.5167
     23 N6         -0.3515   -9.4717   -5.9718 N.pl3     1 <0>        -0.8115
     24 C13         3.3033   -7.3969   -8.1530 C.1       1 <0>        -0.0119
     25 C14         4.1116   -7.4169   -9.0041 C.1       1 <0>        -0.0247
     26 C15         5.0976   -7.4413  -10.0423 C.2       1 <0>         0.1930
     27 N7          6.0462   -6.5539  -10.3260 N.2       1 <0>        -0.4721
     28 C16         6.8726   -6.7389  -11.3246 C.2       1 <0>         0.0256
     29 C17         6.7677   -7.8584  -12.0944 C.2       1 <0>        -0.1902
     30 S1          5.3896   -8.6771  -11.3011 S.3       1 <0>         0.0664
     31 O3          2.2079   -2.4612   -5.7941 O.3       1 <0>        -0.5303
     32 O4          1.0116   -0.6227   -4.3947 O.3       1 <0>        -0.5357
     33 H4          1.0039    1.9031    0.0027 H         1 <0>         0.0646
     34 H5         -0.5459    1.8868   -0.8726 H         1 <0>         0.0637
     35 H6         -0.5289    1.8773    0.9072 H         1 <0>         0.0792
     36 H7          0.5293   -0.3651    0.8851 H         1 <0>         0.0731
     37 H8         -1.0205   -0.3814    0.0098 H         1 <0>         0.0728
     38 H9          1.0417    0.1622   -1.8418 H         1 <0>         0.3980
     39 H10         2.8552   -4.2328   -4.2545 H         1 <0>         0.1342
     40 H11        -0.4279   -5.3998   -2.7649 H         1 <0>         0.2287
     41 H12        -1.0308   -9.4751   -5.2793 H         1 <0>         0.4225
     42 H13        -0.2937  -10.2101   -6.5981 H         1 <0>         0.4136
     43 H14         7.6358   -6.0053  -11.5381 H         1 <0>         0.1770
     44 H15         7.3566   -8.1678  -12.9452 H         1 <0>         0.2063
     45 H16         1.9048   -1.7181   -6.3335 H         1 <0>         0.3976
     46 H17         0.8031    0.0753   -3.7587 H         1 <0>         0.3844
@<TRIPOS>BOND
     1    1    2 1
     2    1   33 1
     3    1   34 1
     4    1   35 1
     5    2    3 1
     6    2   36 1
     7    2   37 1
     8    3    4 am
     9    3   38 1
    10    4    5 2
    11    4    6 1
    12    6    7 1
    13    6   13 1
    14    6    8 1
    15    8    9 1
    16    8   10 1
    17    8   32 1
    18   10   11 1
    19   10   12 1
    20   10   31 1
    21   12   13 1
    22   12   14 1
    23   12   39 1
    24   14   18 1
    25   14   15 1
    26   15   16 2
    27   15   40 1
    28   16   17 1
    29   17   22 ar
    30   17   18 ar
    31   18   19 ar
    32   19   20 ar
    33   20   21 ar
    34   20   24 1
    35   21   22 ar
    36   22   23 1
    37   23   41 1
    38   23   42 1
    39   24   25 3
    40   25   26 1
    41   26   30 1
    42   26   27 2
    43   27   28 1
    44   28   29 2
    45   28   43 1
    46   29   30 1
    47   29   44 1
    48   31   45 1
    49   32   46 1
