@<TRIPOS>MOLECULE
CHEMBL467035
   40    43     0     0     0
SMALL
USER_CHARGES

@<TRIPOS>ATOM
      1 C1         -0.0162    1.3451    0.0094 C.2       1 <0>        -0.2248
      2 C2          1.3225    1.7763   -0.0010 C.2       1 <0>        -0.1231
      3 C3          2.0959    0.6543   -0.0144 C.2       1 <0>        -0.0074
      4 O1          1.2782   -0.4173   -0.0124 O.3       1 <0>        -0.1489
      5 C4          0.0021   -0.0041    0.0020 C.2       1 <0>         0.0010
      6 C5          3.5677    0.6188   -0.0291 C.ar      1 <0>         0.4082
      7 C6          4.2734   -0.4010    0.6510 C.ar      1 <0>        -0.1549
      8 C7          5.6790   -0.3802    0.5989 C.ar      1 <0>         0.3586
      9 N1          6.2899    0.5856   -0.0804 N.ar      1 <0>        -0.5808
     10 C8          5.5905    1.5202   -0.7032 C.ar      1 <0>         0.6207
     11 N2          4.2647    1.5429   -0.6876 N.ar      1 <0>        -0.5503
     12 N3          6.2669    2.5076   -1.3991 N.pl3     1 <0>        -0.8035
     13 N4          6.0998   -1.4584    1.3276 N.pl3     1 <0>        -0.3797
     14 N5          4.9441   -2.0995    1.7988 N.2       1 <0>         0.0018
     15 N6          3.9043   -1.4608    1.3883 N.2       1 <0>        -0.1704
     16 C9          7.4865   -1.8648    1.5687 C.3       1 <0>         0.1364
     17 C10         8.0018   -1.1900    2.8415 C.3       1 <0>        -0.1025
     18 C11         7.2134   -1.7057    4.0471 C.3       1 <0>        -0.1150
     19 C12         7.7287   -1.0310    5.3199 C.3       1 <0>        -0.1188
     20 C13         9.2125   -1.3553    5.5043 C.3       1 <0>        -0.1211
     21 C14        10.0009   -0.8396    4.2987 C.3       1 <0>        -0.1180
     22 C15         9.4856   -1.5144    3.0259 C.3       1 <0>        -0.1099
     23 H1         -0.8933    1.9750    0.0252 H         1 <0>         0.1584
     24 H2          1.6703    2.7988    0.0008 H         1 <0>         0.1592
     25 H3         -0.8670   -0.6452    0.0072 H         1 <0>         0.2132
     26 H4          7.2366    2.5058   -1.4240 H         1 <0>         0.4206
     27 H5          5.7711    3.2012   -1.8618 H         1 <0>         0.4219
     28 H6          7.5325   -2.9473    1.6872 H         1 <0>         0.1058
     29 H7          8.1052   -1.5653    0.7227 H         1 <0>         0.1032
     30 H8          7.8734   -0.1108    2.7581 H         1 <0>         0.0771
     31 H9          6.1563   -1.4747    3.9158 H         1 <0>         0.0624
     32 H10         7.3418   -2.7849    4.1305 H         1 <0>         0.0686
     33 H11         7.6003    0.0482    5.2365 H         1 <0>         0.0587
     34 H12         7.1670   -1.3984    6.1788 H         1 <0>         0.0640
     35 H13         9.5796   -0.8746    6.4111 H         1 <0>         0.0622
     36 H14         9.3409   -2.4345    5.5877 H         1 <0>         0.0635
     37 H15         9.8725    0.2396    4.2153 H         1 <0>         0.0616
     38 H16        11.0580   -1.0707    4.4300 H         1 <0>         0.0659
     39 H17         9.6140   -2.5935    3.1093 H         1 <0>         0.0688
     40 H18        10.0473   -1.1469    2.1670 H         1 <0>         0.0672
@<TRIPOS>BOND
     1    1    5 2
     2    1    2 1
     3    1   23 1
     4    2    3 2
     5    2   24 1
     6    3    4 1
     7    3    6 1
     8    4    5 1
     9    5   25 1
    10    6   11 ar
    11    6    7 ar
    12    7   15 1
    13    7    8 ar
    14    8    9 ar
    15    8   13 1
    16    9   10 ar
    17   10   11 ar
    18   10   12 1
    19   12   26 1
    20   12   27 1
    21   13   14 1
    22   13   16 1
    23   14   15 2
    24   16   17 1
    25   16   28 1
    26   16   29 1
    27   17   22 1
    28   17   18 1
    29   17   30 1
    30   18   19 1
    31   18   31 1
    32   18   32 1
    33   19   20 1
    34   19   33 1
    35   19   34 1
    36   20   21 1
    37   20   35 1
    38   20   36 1
    39   21   22 1
    40   21   37 1
    41   21   38 1
    42   22   39 1
    43   22   40 1
