@<TRIPOS>MOLECULE
CHEMBL209230
   51    54     0     0     0
SMALL
USER_CHARGES

@<TRIPOS>ATOM
      1 C1         -0.0187    1.5258    0.0104 C.3       1 <0>        -0.1437
      2 C2          0.0021   -0.0041    0.0020 C.3       1 <0>        -0.1380
      3 C3         -1.4333   -0.5336    0.0129 C.3       1 <0>         0.1180
      4 N1         -1.4134   -1.9985    0.0048 N.am      1 <0>        -0.5340
      5 C4         -1.4101   -2.6605   -1.1861 C.2       1 <0>         0.5565
      6 O1         -1.4245   -1.9767   -2.3446 O.3       1 <0>        -0.5916
      7 C5         -1.3912   -4.0581   -1.1906 C.2       1 <0>        -0.1450
      8 C6         -1.3759   -4.7445    0.0464 C.2       1 <0>         0.2263
      9 N2         -1.3602   -6.0339   -0.2354 N.2       1 <0>        -0.5274
     10 C7         -1.3647   -6.1838   -1.5654 C.2       1 <0>         0.1465
     11 N3         -1.3834   -5.0000   -2.1519 N.2       1 <0>        -0.4347
     12 C8         -1.3502   -7.4852   -2.2752 C.ar      1 <0>         0.1086
     13 C9         -1.3503   -7.5221   -3.6689 C.ar      1 <0>        -0.1276
     14 C10        -1.3362   -8.7365   -4.3242 C.ar      1 <0>        -0.0188
     15 C11        -1.3220   -9.9157   -3.6010 C.ar      1 <0>        -0.6981
     16 C12        -1.3223   -9.8852   -2.2180 C.ar      1 <0>        -0.0248
     17 C13        -1.3305   -8.6767   -1.5517 C.ar      1 <0>        -0.1272
     18 S1         -1.3041  -11.4624   -4.4447 S.o2      1 <0>         2.6975
     19 O2         -1.8433  -12.4217   -3.5457 O.2       1 <0>        -0.9628
     20 O3         -1.8582  -11.2292   -5.7323 O.2       1 <0>        -0.9632
     21 N4          0.2828  -11.8736   -4.6798 N.pl3     1 <0>        -1.1153
     22 C14         1.1449  -12.1545   -3.5291 C.3       1 <0>         0.1562
     23 C15         2.3984  -12.8474   -3.9978 C.ar      1 <0>        -0.0978
     24 C16         2.4371  -14.2269   -4.0771 C.ar      1 <0>        -0.1012
     25 C17         3.5869  -14.8625   -4.5070 C.ar      1 <0>        -0.1235
     26 C18         4.6978  -14.1186   -4.8581 C.ar      1 <0>        -0.1154
     27 C19         4.6588  -12.7390   -4.7797 C.ar      1 <0>        -0.1225
     28 C20         3.5076  -12.1032   -4.3538 C.ar      1 <0>        -0.1016
     29 N5         -1.3799   -4.0098    1.2200 N.am      1 <0>        -0.6080
     30 H1         -1.3697   -4.4644    2.0768 H         1 <0>         0.4219
     31 C21        -1.3933   -2.6640    1.1719 C.2       1 <0>         0.7117
     32 O4         -1.3920   -2.0345    2.2124 O.2       1 <0>        -0.5708
     33 H2          1.0039    1.9031    0.0027 H         1 <0>         0.0561
     34 H3         -0.5459    1.8868   -0.8726 H         1 <0>         0.0571
     35 H4         -0.5289    1.8773    0.9072 H         1 <0>         0.0558
     36 H5          0.5123   -0.3556   -0.8948 H         1 <0>         0.0690
     37 H6          0.5293   -0.3651    0.8851 H         1 <0>         0.0655
     38 H7         -1.9435   -0.1821    0.9097 H         1 <0>         0.0935
     39 H8         -1.9605   -0.1726   -0.8702 H         1 <0>         0.0972
     40 H9         -1.3617   -6.6022   -4.2345 H         1 <0>         0.1402
     41 H10        -1.3366   -8.7664   -5.4038 H         1 <0>         0.1357
     42 H11        -1.3115  -10.8090   -1.6586 H         1 <0>         0.1351
     43 H12        -1.3258   -8.6541   -0.4720 H         1 <0>         0.1388
     44 H13         0.6415  -11.9284   -5.5793 H         1 <0>         0.4181
     45 H14         1.4095  -11.2189   -3.0363 H         1 <0>         0.0784
     46 H15         0.6151  -12.7979   -2.8266 H         1 <0>         0.0896
     47 H16         1.5691  -14.8082   -3.8028 H         1 <0>         0.1262
     48 H17         3.6174  -15.9403   -4.5683 H         1 <0>         0.1228
     49 H18         5.5964  -14.6152   -5.1933 H         1 <0>         0.1211
     50 H19         5.5269  -12.1578   -5.0536 H         1 <0>         0.1232
     51 H20         3.4758  -11.0252   -4.2961 H         1 <0>         0.1268
@<TRIPOS>BOND
     1    1    2 1
     2    1   33 1
     3    1   34 1
     4    1   35 1
     5    2    3 1
     6    2   36 1
     7    2   37 1
     8    3   38 1
     9    3   39 1
    10    3    4 1
    11    4   31 am
    12    4    5 1
    13    5    6 1
    14    5    7 2
    15    7   11 1
    16    7    8 1
    17    8    9 2
    18    8   29 1
    19    9   10 1
    20   10   11 2
    21   10   12 1
    22   12   17 ar
    23   12   13 ar
    24   13   14 ar
    25   13   40 1
    26   14   15 ar
    27   14   41 1
    28   15   16 ar
    29   15   18 1
    30   16   17 ar
    31   16   42 1
    32   17   43 1
    33   18   19 2
    34   18   20 2
    35   18   21 1
    36   21   22 1
    37   21   44 1
    38   22   23 1
    39   22   45 1
    40   22   46 1
    41   23   28 ar
    42   23   24 ar
    43   24   25 ar
    44   24   47 1
    45   25   26 ar
    46   25   48 1
    47   26   27 ar
    48   26   49 1
    49   27   28 ar
    50   27   50 1
    51   28   51 1
    52   29   30 1
    53   29   31 am
    54   31   32 2
