@<TRIPOS>MOLECULE
CHEMBL144979
   46    50     0     0     0
SMALL
USER_CHARGES

@<TRIPOS>ATOM
      1 C1          1.0281   -0.5784   -0.8346 C.3       1 <0>         0.0259
      2 O1          0.0003   -0.0013   -0.0267 O.3       1 <0>        -0.3170
      3 C2         -1.2022   -0.6357   -0.0114 C.ar      1 <0>         0.1172
      4 C3         -1.3852   -1.7927   -0.7545 C.ar      1 <0>        -0.1867
      5 C4         -2.6063   -2.4375   -0.7394 C.ar      1 <0>        -0.0761
      6 C5         -3.6509   -1.9277    0.0199 C.ar      1 <0>         0.1200
      7 C6         -3.4670   -0.7697    0.7635 C.ar      1 <0>        -0.1000
      8 C7         -2.2438   -0.1290    0.7519 C.ar      1 <0>        -0.1314
      9 N1         -4.8903   -2.5814    0.0354 N.am      1 <0>        -0.6723
     10 C8         -4.9454   -3.9241   -0.0675 C.2       1 <0>         0.7026
     11 O2         -3.9191   -4.5756   -0.0764 O.2       1 <0>        -0.4921
     12 N2         -6.1383   -4.5444   -0.1606 N.am      1 <0>        -0.6493
     13 C9         -6.1948   -5.9200   -0.2660 C.2       1 <0>         0.6386
     14 N3         -5.0750   -6.5931   -0.2675 N.2       1 <0>        -0.4603
     15 C10        -5.0492   -7.9441   -0.3674 C.ar      1 <0>         0.1658
     16 C11        -3.8446   -8.6526   -0.3674 C.ar      1 <0>        -0.0788
     17 C12        -3.8561  -10.0148   -0.4694 C.ar      1 <0>        -0.0639
     18 C13        -5.0529  -10.7135   -0.5739 C.ar      1 <0>        -0.0462
     19 C14        -6.2574  -10.0423   -0.5768 C.ar      1 <0>        -0.0387
     20 C15        -6.2676   -8.6530   -0.4737 C.ar      1 <0>        -0.0940
     21 C16        -7.5154   -7.8807   -0.4708 C.2       1 <0>         0.3588
     22 N4         -7.4201   -6.5189   -0.3587 N.pl3     1 <0>        -0.3608
     23 N5         -8.7347   -6.0339   -0.3728 N.2       1 <0>        -0.2904
     24 C17        -9.5314   -7.0804   -0.4820 C.2       1 <0>         0.3483
     25 N6         -8.7900   -8.1933   -0.5500 N.2       1 <0>        -0.4979
     26 C18       -11.0076   -7.0307   -0.5350 C.2       1 <0>         0.0386
     27 C19       -11.7702   -5.9064   -0.4859 C.2       1 <0>        -0.1336
     28 C20       -13.1137   -6.3234   -0.5663 C.2       1 <0>        -0.2195
     29 C21       -13.1048   -7.6677   -0.6596 C.2       1 <0>        -0.0010
     30 O3        -11.8307   -8.0912   -0.6463 O.3       1 <0>        -0.1523
     31 Cl1        -5.0312  -12.4446   -0.7025 Cl        1 <0>        -0.0495
     32 H1          1.9328    0.0245   -0.7570 H         1 <0>         0.1014
     33 H2          1.2357   -1.5913   -0.4895 H         1 <0>         0.0570
     34 H3          0.6996   -0.6086   -1.8735 H         1 <0>         0.0563
     35 H4         -0.5727   -2.1890   -1.3454 H         1 <0>         0.1332
     36 H5         -2.7487   -3.3381   -1.3183 H         1 <0>         0.1399
     37 H6         -4.2793   -0.3724    1.3541 H         1 <0>         0.1346
     38 H7         -2.0993    0.7693    1.3338 H         1 <0>         0.1373
     39 H8         -5.7086   -2.0674    0.1201 H         1 <0>         0.4102
     40 H9         -6.9572   -4.0245   -0.1535 H         1 <0>         0.4269
     41 H10        -2.9062   -8.1240   -0.2872 H         1 <0>         0.1579
     42 H11        -2.9218  -10.5565   -0.4691 H         1 <0>         0.1509
     43 H12        -7.1852  -10.5891   -0.6582 H         1 <0>         0.1544
     44 H13       -11.4150   -4.8900   -0.4012 H         1 <0>         0.1606
     45 H14       -13.9856   -5.6863   -0.5549 H         1 <0>         0.1606
     46 H15       -13.9775   -8.2993   -0.7366 H         1 <0>         0.2152
@<TRIPOS>BOND
     1    1    2 1
     2    1   32 1
     3    1   33 1
     4    1   34 1
     5    2    3 1
     6    3    8 ar
     7    3    4 ar
     8    4    5 ar
     9    4   35 1
    10    5    6 ar
    11    5   36 1
    12    6    7 ar
    13    6    9 1
    14    7    8 ar
    15    7   37 1
    16    8   38 1
    17    9   10 am
    18    9   39 1
    19   10   11 2
    20   10   12 am
    21   12   13 1
    22   12   40 1
    23   13   22 1
    24   13   14 2
    25   14   15 1
    26   15   20 ar
    27   15   16 ar
    28   16   17 ar
    29   16   41 1
    30   17   18 ar
    31   17   42 1
    32   18   19 ar
    33   18   31 1
    34   19   20 ar
    35   19   43 1
    36   20   21 1
    37   21   25 2
    38   21   22 1
    39   22   23 1
    40   23   24 2
    41   24   25 1
    42   24   26 1
    43   26   30 1
    44   26   27 2
    45   27   28 1
    46   27   44 1
    47   28   29 2
    48   28   45 1
    49   29   30 1
    50   29   46 1
