@<TRIPOS>MOLECULE
CHEMBL87981
   60    64     0     0     0
SMALL
USER_CHARGES

@<TRIPOS>ATOM
      1 C1         -0.0167    1.3780    0.0096 C.ar      1 <0>        -0.1140
      2 C2          1.1715    2.0793    0.0020 C.ar      1 <0>        -0.1183
      3 C3          2.3871    1.4081   -0.0116 C.ar      1 <0>        -0.0766
      4 C4          2.4058    0.0311   -0.0139 C.ar      1 <0>        -0.0737
      5 C5          1.2088   -0.6729   -0.0099 C.ar      1 <0>        -0.1127
      6 C6          0.0021   -0.0041    0.0020 C.ar      1 <0>        -0.0820
      7 C7         -1.2911   -0.7778    0.0078 C.3       1 <0>        -0.0924
      8 C8         -1.7398   -1.0319   -1.4327 C.3       1 <0>         0.1473
      9 N1         -2.9970   -1.7840   -1.4271 N.pl3     1 <0>        -0.6959
     10 C9         -3.6006   -2.1331   -2.6240 C.ar      1 <0>         0.6308
     11 N2         -3.0177   -1.7794   -3.7627 N.ar      1 <0>        -0.6238
     12 C10        -3.5572   -2.0907   -4.9357 C.ar      1 <0>         0.5441
     13 C11        -4.7666   -2.8075   -4.9506 C.ar      1 <0>        -0.1555
     14 C12        -5.3466   -3.1603   -3.7212 C.ar      1 <0>         0.3606
     15 N3         -4.7354   -2.8124   -2.5929 N.ar      1 <0>        -0.6040
     16 N4         -6.4981   -3.8406   -4.0270 N.pl3     1 <0>        -0.4752
     17 C13        -6.5956   -3.8886   -5.3871 C.2       1 <0>         0.2452
     18 N5         -5.5791   -3.2821   -5.9267 N.2       1 <0>        -0.4508
     19 C14        -7.4481   -4.4116   -3.0690 C.3       1 <0>         0.3163
     20 C15        -8.5088   -3.3609   -2.6724 C.3       1 <0>         0.0795
     21 H1         -8.6072   -2.6047   -3.4512 H         1 <0>         0.0855
     22 C16        -9.8146   -4.1766   -2.5418 C.3       1 <0>         0.0468
     23 H2        -10.5585   -3.8235   -3.2560 H         1 <0>         0.0864
     24 C17        -9.3883   -5.6235   -2.8750 C.3       1 <0>         0.0506
     25 H3         -9.1622   -6.1725   -1.9609 H         1 <0>         0.0990
     26 O1         -8.1996   -5.4812   -3.6829 O.3       1 <0>        -0.3467
     27 C18       -10.4893   -6.3349   -3.6639 C.3       1 <0>         0.0822
     28 O2        -10.1263   -7.7029   -3.8608 O.3       1 <0>        -0.5634
     29 O3        -10.3241   -4.0961   -1.2091 O.3       1 <0>        -0.5393
     30 O4         -8.1687   -2.7521   -1.4251 O.3       1 <0>        -0.5260
     31 N6         -2.9426   -1.7172   -6.1176 N.pl3     1 <0>        -0.8165
     32 C19         3.6863   -0.7621   -0.0124 C.3       1 <0>        -0.0822
     33 C20         4.8607    0.1126   -0.4464 C.3       1 <0>        -0.1206
     34 C21         4.8474    1.3937    0.3957 C.3       1 <0>        -0.1207
     35 C22         3.6454    2.2359   -0.0272 C.3       1 <0>        -0.0823
     36 H4         -0.9581    1.9071    0.0260 H         1 <0>         0.1216
     37 H5          1.1561    3.1592    0.0064 H         1 <0>         0.1206
     38 H6          1.2226   -1.7528   -0.0169 H         1 <0>         0.1205
     39 H7         -1.1421   -1.7308    0.5153 H         1 <0>         0.0794
     40 H8         -2.0559   -0.2034    0.5306 H         1 <0>         0.0800
     41 H9         -1.8889   -0.0788   -1.9403 H         1 <0>         0.0687
     42 H10        -0.9751   -1.6062   -1.9555 H         1 <0>         0.0687
     43 H11        -3.4068   -2.0375   -0.5853 H         1 <0>         0.4149
     44 H12        -7.3978   -4.3608   -5.9347 H         1 <0>         0.2192
     45 H13        -6.9229   -4.7752   -2.1858 H         1 <0>         0.1208
     46 H14       -11.4255   -6.2839   -3.1079 H         1 <0>         0.0662
     47 H15       -10.6146   -5.8493   -4.6317 H         1 <0>         0.0610
     48 H16       -10.7800   -8.2161   -4.3551 H         1 <0>         0.3863
     49 H17       -11.1436   -4.5904   -1.0708 H         1 <0>         0.3867
     50 H18        -8.8014   -2.0839   -1.1281 H         1 <0>         0.3893
     51 H19        -2.1085   -1.2226   -6.0953 H         1 <0>         0.4092
     52 H20        -3.3457   -1.9501   -6.9686 H         1 <0>         0.4198
     53 H21         3.8728   -1.1415    0.9923 H         1 <0>         0.0755
     54 H22         3.5899   -1.6017   -0.7007 H         1 <0>         0.0741
     55 H23         5.7964   -0.4228   -0.2853 H         1 <0>         0.0678
     56 H24         4.7593    0.3659   -1.5017 H         1 <0>         0.0656
     57 H25         4.7629    1.1379    1.4519 H         1 <0>         0.0653
     58 H26         5.7665    1.9544    0.2257 H         1 <0>         0.0678
     59 H27         3.8114    2.6187   -1.0342 H         1 <0>         0.0756
     60 H28         3.5333    3.0735    0.6612 H         1 <0>         0.0737
@<TRIPOS>BOND
     1    1    6 ar
     2    1    2 ar
     3    1   36 1
     4    2    3 ar
     5    2   37 1
     6    3   35 1
     7    3    4 ar
     8    4    5 ar
     9    4   32 1
    10    5    6 ar
    11    5   38 1
    12    6    7 1
    13    7    8 1
    14    7   39 1
    15    7   40 1
    16    8    9 1
    17    8   41 1
    18    8   42 1
    19    9   10 1
    20    9   43 1
    21   10   15 ar
    22   10   11 ar
    23   11   12 ar
    24   12   13 ar
    25   12   31 1
    26   13   18 1
    27   13   14 ar
    28   14   15 ar
    29   14   16 1
    30   16   17 1
    31   16   19 1
    32   17   18 2
    33   17   44 1
    34   19   26 1
    35   19   20 1
    36   19   45 1
    37   20   21 1
    38   20   22 1
    39   20   30 1
    40   22   23 1
    41   22   24 1
    42   22   29 1
    43   24   25 1
    44   24   26 1
    45   24   27 1
    46   27   28 1
    47   27   46 1
    48   27   47 1
    49   28   48 1
    50   29   49 1
    51   30   50 1
    52   31   51 1
    53   31   52 1
    54   32   33 1
    55   32   53 1
    56   32   54 1
    57   33   34 1
    58   33   55 1
    59   33   56 1
    60   34   35 1
    61   34   57 1
    62   34   58 1
    63   35   59 1
    64   35   60 1
