@<TRIPOS>MOLECULE
CHEMBL1092271
   30    33     0     0     0
SMALL
USER_CHARGES

@<TRIPOS>ATOM
      1 C1         -0.0157    1.3058    0.0092 C.2       1 <0>        -0.1437
      2 C2          0.0021   -0.0041    0.0020 C.2       1 <0>        -0.1867
      3 C3         -1.2926   -0.7753    0.0102 C.3       1 <0>         0.1128
      4 N1         -1.3176   -1.6997   -1.1260 N.pl3     1 <0>        -0.4463
      5 C4         -1.8329   -1.2809   -2.3323 C.2       1 <0>         0.3466
      6 C5         -1.8201   -2.2198   -3.3613 C.2       1 <0>        -0.2161
      7 C6         -2.3139   -1.9185   -4.6314 C.2       1 <0>         0.3723
      8 N2         -2.4313   -2.5825   -5.7710 N.2       1 <0>        -0.5049
      9 C7         -2.9890   -1.7970   -6.6963 C.2       1 <0>         0.3603
     10 N3         -3.2414   -0.6114   -6.1696 N.2       1 <0>        -0.2795
     11 N4         -2.8178   -0.6556   -4.8374 N.pl3     1 <0>        -0.3361
     12 C8         -2.8135    0.2301   -3.8119 C.2       1 <0>         0.4287
     13 N5         -2.3503   -0.0628   -2.6348 N.2       1 <0>        -0.4792
     14 C9         -3.2784   -2.1919   -8.0908 C.2       1 <0>         0.0323
     15 C10        -3.8402   -1.4014   -9.0435 C.2       1 <0>        -0.1282
     16 C11        -3.9302   -2.1791  -10.2149 C.2       1 <0>        -0.2203
     17 C12        -3.4241   -3.3934   -9.9224 C.2       1 <0>         0.0020
     18 O1         -3.0261   -3.3956   -8.6401 O.3       1 <0>        -0.1522
     19 S1         -1.0896   -3.6476   -2.6028 S.3       1 <0>         0.2067
     20 C13        -0.8306   -2.9488   -0.9793 C.2       1 <0>         0.2488
     21 S2         -0.1424   -3.6785    0.4081 S.2       1 <0>        -0.3640
     22 H1          0.9122    1.8585    0.0033 H         1 <0>         0.1082
     23 H2         -0.9582    1.8330    0.0166 H         1 <0>         0.1050
     24 H3          0.9446   -0.5313   -0.0098 H         1 <0>         0.1198
     25 H4         -1.3737   -1.3393    0.9394 H         1 <0>         0.1250
     26 H5         -2.1295   -0.0812   -0.0676 H         1 <0>         0.1123
     27 H6         -3.2104    1.2203   -3.9809 H         1 <0>         0.2360
     28 H7         -4.1567   -0.3756   -8.9252 H         1 <0>         0.1626
     29 H8         -4.3296   -1.8622  -11.1670 H         1 <0>         0.1615
     30 H9         -3.3473   -4.2251  -10.6070 H         1 <0>         0.2160
@<TRIPOS>BOND
     1    1    2 2
     2    1   22 1
     3    1   23 1
     4    2    3 1
     5    2   24 1
     6    3    4 1
     7    3   25 1
     8    3   26 1
     9    4   20 1
    10    4    5 1
    11    5   13 1
    12    5    6 2
    13    6    7 1
    14    6   19 1
    15    7   11 1
    16    7    8 2
    17    8    9 1
    18    9   10 2
    19    9   14 1
    20   10   11 1
    21   11   12 1
    22   12   13 2
    23   12   27 1
    24   14   18 1
    25   14   15 2
    26   15   16 1
    27   15   28 1
    28   16   17 2
    29   16   29 1
    30   17   18 1
    31   17   30 1
    32   19   20 1
    33   20   21 2
