@<TRIPOS>MOLECULE
CHEMBL16687
   28    31     0     0     0
SMALL
USER_CHARGES

@<TRIPOS>ATOM
      1 C1         -0.0162    1.3433    0.0094 C.2       1 <0>        -0.2195
      2 C2          1.3252    1.7744   -0.0011 C.2       1 <0>        -0.1351
      3 C3          2.0962    0.6548   -0.0144 C.2       1 <0>         0.0399
      4 O1          1.2797   -0.4166   -0.0124 O.3       1 <0>        -0.1525
      5 C4          0.0021   -0.0041    0.0020 C.2       1 <0>        -0.0023
      6 C5          3.5737    0.6193   -0.0292 C.2       1 <0>         0.3445
      7 N1          4.3226   -0.4905   -0.0476 N.2       1 <0>        -0.5018
      8 C6          5.5962   -0.1641   -0.0567 C.2       1 <0>         0.3614
      9 C7          6.8502   -0.9263   -0.0770 C.ar      1 <0>        -0.1117
     10 C8          6.8690   -2.3192   -0.0918 C.ar      1 <0>        -0.0298
     11 C9          8.0788   -2.9807   -0.1111 C.ar      1 <0>        -0.0604
     12 C10         9.2722   -2.2687   -0.1153 C.ar      1 <0>        -0.0566
     13 C11         9.2751   -0.9026   -0.1006 C.ar      1 <0>        -0.1000
     14 C12         8.0651   -0.2038   -0.0819 C.ar      1 <0>         0.1923
     15 N2          8.0311    1.1508   -0.0678 N.2       1 <0>        -0.5514
     16 C13         6.9051    1.8155   -0.0498 C.2       1 <0>         0.6594
     17 N3          5.6826    1.2027   -0.0438 N.pl3     1 <0>        -0.3685
     18 N4          4.3637    1.6764   -0.0320 N.2       1 <0>        -0.2877
     19 N5          6.9524    3.1898   -0.0360 N.pl3     1 <0>        -0.8086
     20 Cl1         8.1113   -4.7163   -0.1296 Cl        1 <0>        -0.0542
     21 H1         -0.8931    1.9736    0.0252 H         1 <0>         0.1603
     22 H2          1.6736    2.7966    0.0008 H         1 <0>         0.1603
     23 H3         -0.8667   -0.6456    0.0074 H         1 <0>         0.2151
     24 H4          5.9438   -2.8764   -0.0879 H         1 <0>         0.1517
     25 H5         10.2107   -2.8029   -0.1301 H         1 <0>         0.1482
     26 H6         10.2110   -0.3636   -0.1038 H         1 <0>         0.1535
     27 H7          7.8086    3.6457   -0.0396 H         1 <0>         0.4305
     28 H8          6.1295    3.7032   -0.0225 H         1 <0>         0.4230
@<TRIPOS>BOND
     1    1    5 2
     2    1    2 1
     3    1   21 1
     4    2    3 2
     5    2   22 1
     6    3    4 1
     7    3    6 1
     8    4    5 1
     9    5   23 1
    10    6   18 2
    11    6    7 1
    12    7    8 2
    13    8   17 1
    14    8    9 1
    15    9   14 ar
    16    9   10 ar
    17   10   11 ar
    18   10   24 1
    19   11   12 ar
    20   11   20 1
    21   12   13 ar
    22   12   25 1
    23   13   14 ar
    24   13   26 1
    25   14   15 1
    26   15   16 2
    27   16   17 1
    28   16   19 1
    29   17   18 1
    30   19   27 1
    31   19   28 1
