@<TRIPOS>MOLECULE
CHEMBL1170519
   43    45     0     0     0
SMALL
USER_CHARGES

@<TRIPOS>ATOM
      1 C1         -0.0149    1.5241    0.0176 C.3       1 <0>        -0.1725
      2 C2          0.0026   -0.0057    0.0017 C.3       1 <0>         0.1105
      3 N1         -1.3729   -0.5099    0.0125 N.am      1 <0>        -0.5714
      4 C3         -2.0803   -0.6428   -1.1908 C.ar      1 <0>         0.1440
      5 C4         -2.0275   -1.8322   -1.9048 C.ar      1 <0>        -0.0530
      6 C5         -2.7354   -1.9423   -3.0926 C.ar      1 <0>        -0.2005
      7 C6         -3.4885   -0.9003   -3.5791 C.ar      1 <0>         0.1924
      8 C7         -3.5657    0.3296   -2.8762 C.ar      1 <0>         0.0885
      9 C8         -2.8378    0.4049   -1.6698 C.ar      1 <0>        -0.1181
     10 S1         -3.1960    2.0537   -1.1132 S.3       1 <0>         0.0317
     11 C9         -4.2613    2.5218   -2.4698 C.2       1 <0>         0.3665
     12 N2         -4.2549    1.4416   -3.2153 N.2       1 <0>        -0.4873
     13 N3         -4.9172    3.7227   -2.6854 N.am      1 <0>        -0.6129
     14 C10        -5.6844    3.8842   -3.7817 C.2       1 <0>         0.5889
     15 O1         -5.8008    2.9756   -4.5817 O.2       1 <0>        -0.4749
     16 C11        -6.3815    5.1604   -4.0108 C.2       1 <0>        -0.2411
     17 C12        -6.3439    6.3516   -3.1554 C.2       1 <0>        -0.1728
     18 C13        -7.1237    7.2705   -3.7521 C.2       1 <0>        -0.0085
     19 N4         -7.6335    6.7379   -4.9003 N.pl3     1 <0>        -0.5502
     20 H1         -8.2268    7.2025   -5.5110 H         1 <0>         0.4226
     21 C14        -7.1906    5.4773   -5.0674 C.2       1 <0>         0.0921
     22 O2         -4.1672   -1.0500   -4.7482 O.3       1 <0>        -0.2906
     23 C15        -4.0496   -2.3112   -5.4097 C.3       1 <0>         0.0198
     24 C16        -1.9582   -0.8461    1.1790 C.2       1 <0>         0.5218
     25 O3         -1.3819   -0.6443    2.2271 O.2       1 <0>        -0.5316
     26 C17        -3.3288   -1.4727    1.1813 C.3       1 <0>        -0.1777
     27 H2          1.0085    1.8992    0.0096 H         1 <0>         0.0702
     28 H3         -0.5432    1.8906   -0.8625 H         1 <0>         0.0591
     29 H4         -0.5224    1.8723    0.9172 H         1 <0>         0.0610
     30 H5          0.5101   -0.3539   -0.8979 H         1 <0>         0.0786
     31 H6          0.5309   -0.3723    0.8818 H         1 <0>         0.0918
     32 H7         -1.4413   -2.6625   -1.5397 H         1 <0>         0.1466
     33 H8         -2.6937   -2.8676   -3.6479 H         1 <0>         0.1472
     34 H9         -4.8244    4.4474   -2.0474 H         1 <0>         0.4286
     35 H10        -5.7986    6.4675   -2.2303 H         1 <0>         0.1478
     36 H11        -7.3156    8.2670   -3.3825 H         1 <0>         0.1734
     37 H12        -7.4345    4.8263   -5.8939 H         1 <0>         0.1814
     38 H13        -4.4174   -3.1008   -4.7544 H         1 <0>         0.0600
     39 H14        -4.6383   -2.2967   -6.3269 H         1 <0>         0.1050
     40 H15        -3.0036   -2.4982   -5.6522 H         1 <0>         0.0598
     41 H16        -3.6457   -1.6571    0.1548 H         1 <0>         0.0790
     42 H17        -3.2961   -2.4160    1.7265 H         1 <0>         0.0983
     43 H18        -4.0359   -0.7982    1.6643 H         1 <0>         0.0961
@<TRIPOS>BOND
     1    1    2 1
     2    1   27 1
     3    1   28 1
     4    1   29 1
     5    2    3 1
     6    2   30 1
     7    2   31 1
     8    3    4 1
     9    3   24 am
    10    4    9 ar
    11    4    5 ar
    12    5    6 ar
    13    5   32 1
    14    6    7 ar
    15    6   33 1
    16    7    8 ar
    17    7   22 1
    18    8   12 1
    19    8    9 ar
    20    9   10 1
    21   10   11 1
    22   11   12 2
    23   11   13 1
    24   13   14 am
    25   13   34 1
    26   14   15 2
    27   14   16 1
    28   16   21 2
    29   16   17 1
    30   17   18 2
    31   17   35 1
    32   18   19 1
    33   18   36 1
    34   19   20 1
    35   19   21 1
    36   21   37 1
    37   22   23 1
    38   23   38 1
    39   23   39 1
    40   23   40 1
    41   24   25 2
    42   24   26 1
    43   26   41 1
    44   26   42 1
    45   26   43 1
