@<TRIPOS>MOLECULE
CHEMBL39503
   62    64     0     0     0
SMALL
USER_CHARGES

@<TRIPOS>ATOM
      1 C1         -0.0187    1.5258    0.0104 C.3       1 <0>        -0.1482
      2 C2          0.0021   -0.0041    0.0020 C.3       1 <0>        -0.1410
      3 C3          0.7421   -0.5109    1.2415 C.3       1 <0>         0.1407
      4 N1          0.7619   -1.9757    1.2335 N.am      1 <0>        -0.5949
      5 C4         -0.3297   -2.7272    1.8725 C.3       1 <0>         0.2823
      6 C5         -0.2220   -4.2736    1.8031 C.3       1 <0>         0.0900
      7 C6          1.0023   -4.8167    1.0955 C.2       1 <0>         0.5213
      8 O1          1.1754   -6.0126    0.9969 O.2       1 <0>        -0.4814
      9 N2          1.8938   -3.9541    0.5779 N.am      1 <0>        -0.5592
     10 C7          1.7719   -2.6269    0.6391 C.2       1 <0>         0.7018
     11 O2          2.6447   -1.9578    0.1217 O.2       1 <0>        -0.5515
     12 C8          3.0695   -4.5055   -0.1004 C.3       1 <0>         0.1043
     13 C9          2.7568   -4.7006   -1.5853 C.3       1 <0>        -0.1346
     14 C10         3.9846   -5.2765   -2.2937 C.3       1 <0>        -0.1477
     15 N3         -0.0959   -4.6632    3.2162 N.pl3     1 <0>        -0.7346
     16 C11        -0.1302   -3.5288    3.9848 C.2       1 <0>         0.4391
     17 N4         -0.2573   -2.4344    3.3097 N.2       1 <0>        -0.5680
     18 C12        -0.0308   -3.5551    5.4604 C.ar      1 <0>        -0.0894
     19 C13         0.1105   -4.7714    6.1304 C.ar      1 <0>        -0.0459
     20 C14         0.2028   -4.7923    7.5050 C.ar      1 <0>        -0.1450
     21 C15         0.1549   -3.6046    8.2241 C.ar      1 <0>         0.1476
     22 C16         0.0139   -2.3922    7.5606 C.ar      1 <0>        -0.2152
     23 C17        -0.0723   -2.3634    6.1857 C.ar      1 <0>        -0.0167
     24 O3          0.2457   -3.6288    9.5786 O.3       1 <0>        -0.2877
     25 C18         0.1894   -2.3714   10.2552 C.3       1 <0>         0.0404
     26 C19         0.3048   -2.5949   11.7411 C.2       1 <0>         0.5237
     27 O4          0.4235   -3.7201   12.1777 O.2       1 <0>        -0.4950
     28 N5          0.2760   -1.5443   12.5848 N.am      1 <0>        -0.7331
     29 C20         0.3882   -1.7615   14.0292 C.3       1 <0>         0.0930
     30 C21         0.3279   -0.4152   14.7537 C.3       1 <0>        -0.0194
     31 N6          0.4404   -0.6330   16.2021 N.4       1 <0>        -0.6319
     32 H1          1.0039    1.9031    0.0027 H         1 <0>         0.0578
     33 H2         -0.5459    1.8868   -0.8726 H         1 <0>         0.0591
     34 H3         -0.5289    1.8773    0.9072 H         1 <0>         0.0561
     35 H4         -1.0205   -0.3814    0.0098 H         1 <0>         0.0621
     36 H5          0.5123   -0.3556   -0.8948 H         1 <0>         0.0669
     37 H6          1.7647   -0.1336    1.2338 H         1 <0>         0.0890
     38 H7          0.2319   -0.1594    2.1383 H         1 <0>         0.0926
     39 H8         -1.2889   -2.3949    1.4756 H         1 <0>         0.1265
     40 H9         -1.1264   -4.6942    1.3636 H         1 <0>         0.1406
     41 H10         3.9073   -3.8166    0.0070 H         1 <0>         0.1010
     42 H11         3.3291   -5.4657    0.3455 H         1 <0>         0.0948
     43 H12         1.9189   -5.3895   -1.6927 H         1 <0>         0.0643
     44 H13         2.4971   -3.7404   -2.0311 H         1 <0>         0.0694
     45 H14         4.2442   -6.2366   -1.8478 H         1 <0>         0.0576
     46 H15         3.7618   -5.4155   -3.3516 H         1 <0>         0.0618
     47 H16         4.8224   -4.5876   -2.1863 H         1 <0>         0.0593
     48 H17        -0.0044   -5.5701    3.5481 H         1 <0>         0.4265
     49 H18         0.1471   -5.6951    5.5720 H         1 <0>         0.1349
     50 H19         0.3121   -5.7330    8.0240 H         1 <0>         0.1424
     51 H20        -0.0237   -1.4708    8.1228 H         1 <0>         0.1347
     52 H21        -0.1770   -1.4201    5.6702 H         1 <0>         0.1465
     53 H22         1.0115   -1.7402    9.9178 H         1 <0>         0.1022
     54 H23        -0.7590   -1.8819   10.0340 H         1 <0>         0.1024
     55 H24         0.1811   -0.6443   12.2356 H         1 <0>         0.4113
     56 H25        -0.4339   -2.3927   14.3666 H         1 <0>         0.0931
     57 H26         1.3366   -2.2510   14.2505 H         1 <0>         0.0930
     58 H27         1.1500    0.2160   14.4163 H         1 <0>         0.1426
     59 H28        -0.6205    0.0743   14.5324 H         1 <0>         0.1427
     60 H29        -0.3206   -1.2174   16.5144 H         1 <0>         0.4398
     61 H30         1.3183   -1.0862   16.4069 H         1 <0>         0.4398
     62 H31         0.4006    0.2548   16.6798 H         1 <0>         0.4453
@<TRIPOS>BOND
     1    1    2 1
     2    1   32 1
     3    1   33 1
     4    1   34 1
     5    2    3 1
     6    2   35 1
     7    2   36 1
     8    3    4 1
     9    3   37 1
    10    3   38 1
    11    4   10 am
    12    4    5 1
    13    5   17 1
    14    5    6 1
    15    5   39 1
    16    6    7 1
    17    6   15 1
    18    6   40 1
    19    7    8 2
    20    7    9 am
    21    9   10 am
    22    9   12 1
    23   10   11 2
    24   12   13 1
    25   12   41 1
    26   12   42 1
    27   13   14 1
    28   13   43 1
    29   13   44 1
    30   14   45 1
    31   14   46 1
    32   14   47 1
    33   15   16 1
    34   15   48 1
    35   16   17 2
    36   16   18 1
    37   18   23 ar
    38   18   19 ar
    39   19   20 ar
    40   19   49 1
    41   20   21 ar
    42   20   50 1
    43   21   22 ar
    44   21   24 1
    45   22   23 ar
    46   22   51 1
    47   23   52 1
    48   24   25 1
    49   25   26 1
    50   25   53 1
    51   25   54 1
    52   26   27 2
    53   26   28 am
    54   28   29 1
    55   28   55 1
    56   29   30 1
    57   29   56 1
    58   29   57 1
    59   30   31 1
    60   30   58 1
    61   30   59 1
    62   31   60 1
    63   31   61 1
    64   31   62 1
