@<TRIPOS>MOLECULE
CHEMBL321218
   63    66     0     0     0
SMALL
USER_CHARGES

@<TRIPOS>ATOM
      1 C1         -0.0187    1.5258    0.0104 C.3       1 <0>        -0.1478
      2 C2          0.0021   -0.0041    0.0020 C.3       1 <0>        -0.1370
      3 C3         -1.4333   -0.5336    0.0129 C.3       1 <0>         0.1132
      4 N1         -1.4134   -1.9985    0.0048 N.am      1 <0>        -0.5481
      5 C4         -1.4101   -2.6566   -1.1731 C.2       1 <0>         0.5934
      6 O1         -1.4231   -2.0399   -2.2234 O.2       1 <0>        -0.5100
      7 C5         -1.3909   -4.0680   -1.1740 C.2       1 <0>        -0.1528
      8 C6         -1.3760   -4.7455    0.0387 C.2       1 <0>         0.3226
      9 N2         -1.3595   -6.0519   -0.2379 N.2       1 <0>        -0.4906
     10 H1         -1.3884   -4.8858   -3.1159 H         1 <0>         0.4352
     11 C7         -1.3633   -6.2307   -1.5343 C.2       1 <0>         0.3088
     12 N3         -1.3824   -5.0365   -2.1577 N.pl3     1 <0>        -0.5124
     13 C8         -1.3476   -7.5699   -2.2252 C.3       1 <0>        -0.0170
     14 C9         -0.5833   -7.4663   -3.5612 C.3       1 <0>        -0.1244
     15 C10        -1.3699   -8.3925   -4.5217 C.3       1 <0>        -0.1245
     16 C11        -2.8415   -8.1438   -4.1074 C.3       1 <0>        -0.1289
     17 C12        -2.7834   -8.0007   -2.5725 C.3       1 <0>        -0.1171
     18 N4         -1.3803   -4.0123    1.2144 N.am      1 <0>        -0.5074
     19 C13        -1.3933   -2.6667    1.1710 C.2       1 <0>         0.7078
     20 O2         -1.3920   -2.0401    2.2131 O.2       1 <0>        -0.5275
     21 C14        -1.3653   -4.7023    2.5066 C.3       1 <0>         0.1246
     22 C15         0.0823   -4.9234    2.9499 C.3       1 <0>        -0.1486
     23 C16         0.0980   -5.6439    4.2995 C.3       1 <0>         0.1240
     24 N5          1.4841   -5.8556    4.7240 N.am      1 <0>        -0.7215
     25 C17         1.7439   -6.4764    5.8917 C.2       1 <0>         0.5539
     26 O3          0.8282   -6.8607    6.5927 O.2       1 <0>        -0.5193
     27 C18         3.1428   -6.6900    6.3201 C.ar      1 <0>        -0.0732
     28 C19         4.1965   -6.2449    5.5203 C.ar      1 <0>        -0.1014
     29 C20         5.4995   -6.4469    5.9260 C.ar      1 <0>        -0.0416
     30 C21         5.7628   -7.0897    7.1226 C.ar      1 <0>        -0.6624
     31 C22         4.7229   -7.5338    7.9199 C.ar      1 <0>        -0.0140
     32 C23         3.4153   -7.3326    7.5288 C.ar      1 <0>        -0.0725
     33 S1          7.4299   -7.3442    7.6332 S.o2      1 <0>         2.6700
     34 O4          7.7990   -6.2047    8.3978 O.2       1 <0>        -0.9160
     35 O5          7.4984   -8.6651    8.1528 O.2       1 <0>        -0.9183
     36 F1          8.3423   -7.3236    6.3069 F         1 <0>        -0.4670
     37 H2          1.0039    1.9031    0.0027 H         1 <0>         0.0617
     38 H3         -0.5459    1.8868   -0.8726 H         1 <0>         0.0592
     39 H4         -0.5289    1.8773    0.9072 H         1 <0>         0.0601
     40 H5          0.5123   -0.3556   -0.8948 H         1 <0>         0.0670
     41 H6          0.5293   -0.3651    0.8851 H         1 <0>         0.0686
     42 H7         -1.9435   -0.1821    0.9097 H         1 <0>         0.1040
     43 H8         -1.9605   -0.1726   -0.8702 H         1 <0>         0.1018
     44 H9         -0.8790   -8.3156   -1.5830 H         1 <0>         0.1178
     45 H10        -0.5932   -6.4398   -3.9278 H         1 <0>         0.0622
     46 H11         0.4408   -7.8204   -3.4433 H         1 <0>         0.0821
     47 H12        -1.2063   -8.1014   -5.5593 H         1 <0>         0.0740
     48 H13        -1.0951   -9.4354   -4.3640 H         1 <0>         0.0764
     49 H14        -3.2161   -7.2268   -4.5621 H         1 <0>         0.0666
     50 H15        -3.4654   -8.9924   -4.3880 H         1 <0>         0.0746
     51 H16        -3.0113   -8.9559   -2.0995 H         1 <0>         0.0826
     52 H17        -3.4915   -7.2412   -2.2412 H         1 <0>         0.0686
     53 H18        -1.8838   -4.0952    3.2487 H         1 <0>         0.1060
     54 H19        -1.8668   -5.6652    2.4102 H         1 <0>         0.1045
     55 H20         0.6009   -5.5304    2.2079 H         1 <0>         0.0785
     56 H21         0.5838   -3.9604    3.0463 H         1 <0>         0.0786
     57 H22        -0.4206   -5.0369    5.0416 H         1 <0>         0.0785
     58 H23        -0.4035   -6.6069    4.2031 H         1 <0>         0.0787
     59 H24         2.2148   -5.5490    4.1646 H         1 <0>         0.4017
     60 H25         3.9922   -5.7436    4.5857 H         1 <0>         0.1403
     61 H26         6.3157   -6.1030    5.3081 H         1 <0>         0.1468
     62 H27         4.9352   -8.0351    8.8527 H         1 <0>         0.1521
     63 H28         2.6044   -7.6754    8.1543 H         1 <0>         0.1546
@<TRIPOS>BOND
     1    1    2 1
     2    1   37 1
     3    1   38 1
     4    1   39 1
     5    2    3 1
     6    2   40 1
     7    2   41 1
     8    3   42 1
     9    3   43 1
    10    3    4 1
    11    4   19 am
    12    4    5 am
    13    5    6 2
    14    5    7 1
    15    7   12 1
    16    7    8 2
    17    8    9 1
    18    8   18 1
    19    9   11 2
    20   10   12 1
    21   11   12 1
    22   11   13 1
    23   13   17 1
    24   13   14 1
    25   13   44 1
    26   14   15 1
    27   14   45 1
    28   14   46 1
    29   15   16 1
    30   15   47 1
    31   15   48 1
    32   16   17 1
    33   16   49 1
    34   16   50 1
    35   17   51 1
    36   17   52 1
    37   18   21 1
    38   18   19 am
    39   19   20 2
    40   21   22 1
    41   21   53 1
    42   21   54 1
    43   22   23 1
    44   22   55 1
    45   22   56 1
    46   23   24 1
    47   23   57 1
    48   23   58 1
    49   24   25 am
    50   24   59 1
    51   25   26 2
    52   25   27 1
    53   27   32 ar
    54   27   28 ar
    55   28   29 ar
    56   28   60 1
    57   29   30 ar
    58   29   61 1
    59   30   31 ar
    60   30   33 1
    61   31   32 ar
    62   31   62 1
    63   32   63 1
    64   33   34 2
    65   33   35 2
    66   33   36 1
