@<TRIPOS>MOLECULE
CHEMBL456068
   43    45     0     0     0
SMALL
USER_CHARGES

@<TRIPOS>ATOM
      1 C1         -2.8090    1.0861    0.8024 C.3       1 <0>        -0.1723
      2 C2         -2.6358   -0.3662    0.4391 C.2       1 <0>         0.5001
      3 O1         -3.5942   -1.0224    0.0904 O.2       1 <0>        -0.4669
      4 N1         -1.4159   -0.9357    0.5018 N.am      1 <0>        -0.6593
      5 C3         -1.2722   -2.2997    0.2687 C.ar      1 <0>         0.4386
      6 C4         -0.0368   -2.9171    0.4391 C.ar      1 <0>        -0.3397
      7 C5          0.0617   -4.2854    0.1950 C.ar      1 <0>         0.4894
      8 N2         -1.0209   -4.9540   -0.1907 N.ar      1 <0>        -0.5824
      9 C6         -2.1846   -4.3323   -0.3433 C.ar      1 <0>         0.4726
     10 N3         -2.3144   -3.0304   -0.1142 N.ar      1 <0>        -0.5377
     11 C7         -3.3637   -5.1080   -0.7731 C.2       1 <0>        -0.1194
     12 C8         -4.6458   -4.6780   -0.9971 C.2       1 <0>        -0.0915
     13 C9         -5.5902   -5.5941   -1.3982 C.2       1 <0>        -0.1680
     14 C10        -5.2258   -6.8937   -1.5600 C.2       1 <0>        -0.1690
     15 S1         -3.4901   -6.8498   -1.1445 S.3       1 <0>         0.1113
     16 N4          1.2730   -4.9410    0.3518 N.pl3     1 <0>        -0.5911
     17 C11         1.4772   -6.3990    0.2742 C.3       1 <0>         0.1200
     18 C12         2.7634   -6.6636    1.0959 C.3       1 <0>        -0.1335
     19 C13         3.6201   -5.4191    0.7429 C.3       1 <0>        -0.1247
     20 C14         2.5679   -4.2971    0.6166 C.3       1 <0>         0.1471
     21 H1          2.5175   -3.7322    1.5475 H         1 <0>         0.0901
     22 C15         2.9325   -3.3660   -0.5414 C.3       1 <0>         0.0419
     23 O2          3.1610   -4.1397   -1.7209 O.3       1 <0>        -0.3793
     24 C16         3.5101   -3.3618   -2.8677 C.3       1 <0>         0.0317
     25 H2         -3.8567    1.3659    0.6918 H         1 <0>         0.0988
     26 H3         -2.4985    1.2417    1.8356 H         1 <0>         0.0920
     27 H4         -2.1971    1.7011    0.1426 H         1 <0>         0.0914
     28 H5         -0.6381   -0.3945    0.7094 H         1 <0>         0.4197
     29 H6          0.8261   -2.3485    0.7530 H         1 <0>         0.1399
     30 H7         -4.9096   -3.6396   -0.8609 H         1 <0>         0.1491
     31 H8         -6.6085   -5.2848   -1.5819 H         1 <0>         0.1387
     32 H9         -5.8298   -7.7352   -1.8654 H         1 <0>         0.1899
     33 H10         0.6304   -6.9247    0.7153 H         1 <0>         0.0785
     34 H11         1.6186   -6.7077   -0.7616 H         1 <0>         0.0699
     35 H12         2.5451   -6.6976    2.1633 H         1 <0>         0.0752
     36 H13         3.2538   -7.5808    0.7696 H         1 <0>         0.0874
     37 H14         4.3280   -5.1989    1.5420 H         1 <0>         0.0835
     38 H15         4.1393   -5.5643   -0.2044 H         1 <0>         0.0920
     39 H16         2.1143   -2.6678   -0.7177 H         1 <0>         0.0557
     40 H17         3.8363   -2.8107   -0.2904 H         1 <0>         0.0622
     41 H18         2.7039   -2.6635   -3.0922 H         1 <0>         0.0389
     42 H19         4.4259   -2.8064   -2.6649 H         1 <0>         0.0421
     43 H20         3.6670   -4.0221   -3.7206 H         1 <0>         0.0873
@<TRIPOS>BOND
     1    1    2 1
     2    1   25 1
     3    1   26 1
     4    1   27 1
     5    2    3 2
     6    2    4 am
     7    4    5 1
     8    4   28 1
     9    5   10 ar
    10    5    6 ar
    11    6    7 ar
    12    6   29 1
    13    7    8 ar
    14    7   16 1
    15    8    9 ar
    16    9   10 ar
    17    9   11 1
    18   11   15 1
    19   11   12 2
    20   12   13 1
    21   12   30 1
    22   13   14 2
    23   13   31 1
    24   14   15 1
    25   14   32 1
    26   16   20 1
    27   16   17 1
    28   17   18 1
    29   17   33 1
    30   17   34 1
    31   18   19 1
    32   18   35 1
    33   18   36 1
    34   19   20 1
    35   19   37 1
    36   19   38 1
    37   20   21 1
    38   20   22 1
    39   22   23 1
    40   22   39 1
    41   22   40 1
    42   23   24 1
    43   24   41 1
    44   24   42 1
    45   24   43 1
