@<TRIPOS>MOLECULE
CHEMBL471974
   45    48     0     0     0
SMALL
USER_CHARGES

@<TRIPOS>ATOM
      1 C1         -0.0173    1.4248    0.0099 C.3       1 <0>         0.0270
      2 O1          0.0021   -0.0041    0.0020 O.3       1 <0>        -0.3188
      3 C2         -1.2003   -0.6375    0.0101 C.ar      1 <0>         0.1224
      4 C3         -2.3746    0.1011    0.0195 C.ar      1 <0>        -0.2067
      5 C4         -3.5956   -0.5451    0.0272 C.ar      1 <0>        -0.0760
      6 C5         -3.6478   -1.9268    0.0260 C.ar      1 <0>        -0.1205
      7 C6         -2.4788   -2.6651    0.0172 C.ar      1 <0>        -0.0764
      8 C7         -1.2554   -2.0237    0.0032 C.ar      1 <0>        -0.1501
      9 C8         -4.9811   -2.6292    0.0350 C.3       1 <0>        -0.0746
     10 C9         -5.4428   -2.8652   -1.4045 C.3       1 <0>        -0.1074
     11 C10        -6.7965   -3.5783   -1.3954 C.3       1 <0>        -0.0687
     12 C11        -7.2513   -3.8109   -2.8132 C.2       1 <0>         0.2107
     13 C12        -6.9967   -5.0045   -3.4170 C.2       1 <0>        -0.2226
     14 C13        -7.4326   -5.1967   -4.7433 C.2       1 <0>         0.3522
     15 N1         -7.3511   -6.2041   -5.5967 N.2       1 <0>        -0.5251
     16 C14        -7.9375   -5.8640   -6.7492 C.2       1 <0>         0.3531
     17 N2         -8.4053   -4.6322   -6.6552 N.2       1 <0>        -0.3227
     18 N3         -8.0949   -4.1726   -5.3697 N.pl3     1 <0>        -0.3613
     19 C15        -8.3144   -3.0054   -4.7048 C.2       1 <0>         0.6496
     20 N4         -7.9045   -2.8481   -3.4646 N.2       1 <0>        -0.5513
     21 N5         -8.9789   -1.9798   -5.3352 N.pl3     1 <0>        -0.8079
     22 C16        -8.0452   -6.7306   -7.9417 C.2       1 <0>         0.0364
     23 C17        -7.5738   -8.0010   -8.0499 C.2       1 <0>        -0.1268
     24 C18        -7.8937   -8.4434   -9.3488 C.2       1 <0>        -0.2189
     25 C19        -8.5379   -7.4315   -9.9629 C.2       1 <0>        -0.0079
     26 O2         -8.6328   -6.4006   -9.1081 O.3       1 <0>        -0.1609
     27 H1          1.0053    1.8021    0.0021 H         1 <0>         0.1007
     28 H2         -0.5445    1.7859   -0.8732 H         1 <0>         0.0553
     29 H3         -0.5275    1.7763    0.9067 H         1 <0>         0.0557
     30 H4         -2.3343    1.1803    0.0211 H         1 <0>         0.1271
     31 H5         -4.5101    0.0294    0.0345 H         1 <0>         0.1245
     32 H6         -2.5223   -3.7443    0.0166 H         1 <0>         0.1299
     33 H7         -0.3427   -2.6008   -0.0082 H         1 <0>         0.1303
     34 H8         -4.8840   -3.5865    0.5470 H         1 <0>         0.0756
     35 H9         -5.7136   -2.0117    0.5548 H         1 <0>         0.0745
     36 H10        -5.5399   -1.9079   -1.9165 H         1 <0>         0.0702
     37 H11        -4.7104   -3.4827   -1.9243 H         1 <0>         0.0687
     38 H12        -6.6994   -4.5356   -0.8833 H         1 <0>         0.0933
     39 H13        -7.5289   -2.9608   -0.8755 H         1 <0>         0.0926
     40 H14        -6.4714   -5.7876   -2.8905 H         1 <0>         0.1649
     41 H15        -9.2879   -2.0908   -6.2480 H         1 <0>         0.4238
     42 H16        -9.1387   -1.1454   -4.8672 H         1 <0>         0.4296
     43 H17        -7.0540   -8.5624   -7.2877 H         1 <0>         0.1631
     44 H18        -7.6657   -9.4104   -9.7721 H         1 <0>         0.1598
     45 H19        -8.9187   -7.4487  -10.9734 H         1 <0>         0.2134
@<TRIPOS>BOND
     1    1    2 1
     2    1   27 1
     3    1   28 1
     4    1   29 1
     5    2    3 1
     6    3    8 ar
     7    3    4 ar
     8    4    5 ar
     9    4   30 1
    10    5    6 ar
    11    5   31 1
    12    6    7 ar
    13    6    9 1
    14    7    8 ar
    15    7   32 1
    16    8   33 1
    17    9   10 1
    18    9   34 1
    19    9   35 1
    20   10   11 1
    21   10   36 1
    22   10   37 1
    23   11   12 1
    24   11   38 1
    25   11   39 1
    26   12   20 1
    27   12   13 2
    28   13   14 1
    29   13   40 1
    30   14   18 1
    31   14   15 2
    32   15   16 1
    33   16   17 2
    34   16   22 1
    35   17   18 1
    36   18   19 1
    37   19   20 2
    38   19   21 1
    39   21   41 1
    40   21   42 1
    41   22   26 1
    42   22   23 2
    43   23   24 1
    44   23   43 1
    45   24   25 2
    46   24   44 1
    47   25   26 1
    48   25   45 1
