@<TRIPOS>MOLECULE
CHEMBL113142
   40    43     0     0     0
SMALL
USER_CHARGES

@<TRIPOS>ATOM
      1 C1         -0.0162    1.3433    0.0094 C.2       1 <0>        -0.2183
      2 C2          1.3252    1.7744   -0.0011 C.2       1 <0>        -0.1299
      3 C3          2.0963    0.6547   -0.0144 C.2       1 <0>         0.0423
      4 O1          1.2798   -0.4167   -0.0124 O.3       1 <0>        -0.1609
      5 C4          0.0021   -0.0041    0.0020 C.2       1 <0>        -0.0104
      6 C5          3.5735    0.6192   -0.0292 C.2       1 <0>         0.3355
      7 N1          4.3782    1.6975   -0.0257 N.2       1 <0>        -0.4970
      8 C6          5.6284    1.3133   -0.0438 C.2       1 <0>         0.5146
      9 N2          6.7827    2.0136   -0.0426 N.2       1 <0>        -0.5398
     10 C7          7.9149    1.3544   -0.2245 C.2       1 <0>         0.6700
     11 N3          7.9251    0.0030   -0.4737 N.pl3     1 <0>        -0.6626
     12 C8          6.8335   -0.7612   -0.0614 C.2       1 <0>         0.6360
     13 N4          5.6350   -0.0666   -0.0535 N.pl3     1 <0>        -0.4336
     14 N5          4.3125   -0.4776   -0.0421 N.2       1 <0>        -0.2856
     15 N6          6.9320   -2.0133    0.2840 N.2       1 <0>        -0.6825
     16 N7          9.1029    2.0335   -0.1638 N.pl3     1 <0>        -0.6810
     17 C9          9.1102    3.4745    0.1004 C.3       1 <0>         0.1342
     18 C10        10.5532    3.9828    0.1160 C.3       1 <0>        -0.0924
     19 C11        10.5608    5.4651    0.3878 C.ar      1 <0>        -0.0961
     20 C12        10.4952    6.3599   -0.6642 C.ar      1 <0>        -0.0935
     21 C13        10.5024    7.7192   -0.4178 C.ar      1 <0>        -0.1433
     22 C14        10.5751    8.1861    0.8866 C.ar      1 <0>         0.1083
     23 C15        10.6403    7.2862    1.9404 C.ar      1 <0>        -0.1434
     24 C16        10.6275    5.9278    1.6890 C.ar      1 <0>        -0.0936
     25 O2         10.5827    9.5228    1.1316 O.3       1 <0>        -0.5006
     26 H1         -0.8931    1.9736    0.0252 H         1 <0>         0.1589
     27 H2          1.6735    2.7967    0.0011 H         1 <0>         0.1631
     28 H3         -0.8667   -0.6456    0.0069 H         1 <0>         0.2125
     29 H4          6.1427   -2.5028    0.5637 H         1 <0>         0.3781
     30 H5          9.9393    1.5604   -0.2957 H         1 <0>         0.4195
     31 H6          8.5519    3.9900   -0.6811 H         1 <0>         0.0868
     32 H7          8.6460    3.6690    1.0672 H         1 <0>         0.0863
     33 H8         11.1116    3.4673    0.8975 H         1 <0>         0.0842
     34 H9         11.0175    3.7883   -0.8508 H         1 <0>         0.0842
     35 H10        10.4387    5.9959   -1.6795 H         1 <0>         0.1285
     36 H11        10.4519    8.4178   -1.2399 H         1 <0>         0.1304
     37 H12        10.6970    7.6472    2.9567 H         1 <0>         0.1303
     38 H13        10.6739    5.2268    2.5092 H         1 <0>         0.1284
     39 H14         9.7030    9.9055    1.2531 H         1 <0>         0.3935
     40 H15         8.6760   -0.4109   -0.9272 H         1 <0>         0.4390
@<TRIPOS>BOND
     1    1    5 2
     2    1    2 1
     3    1   26 1
     4    2    3 2
     5    2   27 1
     6    3    4 1
     7    3    6 1
     8    4    5 1
     9    5   28 1
    10    6   14 2
    11    6    7 1
    12    7    8 2
    13    8   13 1
    14    8    9 1
    15    9   10 2
    16   10   11 1
    17   10   16 1
    18   11   12 1
    19   11   40 1
    20   12   13 1
    21   12   15 2
    22   13   14 1
    23   15   29 1
    24   16   17 1
    25   16   30 1
    26   17   18 1
    27   17   31 1
    28   17   32 1
    29   18   19 1
    30   18   33 1
    31   18   34 1
    32   19   24 ar
    33   19   20 ar
    34   20   21 ar
    35   20   35 1
    36   21   22 ar
    37   21   36 1
    38   22   23 ar
    39   22   25 1
    40   23   24 ar
    41   23   37 1
    42   24   38 1
    43   25   39 1
