@<TRIPOS>MOLECULE
CHEMBL183674
   39    42     0     0     0
SMALL
USER_CHARGES

@<TRIPOS>ATOM
      1 C1         -0.0162    1.3433    0.0094 C.2       1 <0>        -0.2188
      2 C2          1.3252    1.7744   -0.0011 C.2       1 <0>        -0.1173
      3 C3          2.0962    0.6548   -0.0144 C.2       1 <0>         0.0187
      4 O1          1.2797   -0.4166   -0.0124 O.3       1 <0>        -0.1536
      5 C4          0.0021   -0.0041    0.0020 C.2       1 <0>         0.0106
      6 C5          3.5737    0.6193   -0.0287 C.2       1 <0>         0.3504
      7 N1          4.3193   -0.4866   -0.0471 N.2       1 <0>        -0.4525
      8 C6          5.6015   -0.1603   -0.0567 C.2       1 <0>         0.2032
      9 C7          6.7993   -0.9188   -0.0757 C.cat     1 <0>         0.5570
     10 N2          7.9622   -0.3011   -0.0808 N.pl3     1 <0>        -0.4899
     11 C8          8.0347    1.0410   -0.0677 C.2       1 <0>         0.2703
     12 C9          6.9046    1.8048   -0.0493 C.2       1 <0>         0.0853
     13 N3          5.6823    1.2048   -0.0439 N.pl3     1 <0>        -0.2375
     14 N4          4.3660    1.6803   -0.0311 N.2       1 <0>        -0.2324
     15 C10         9.3170    1.6784   -0.0728 C.1       1 <0>        -0.3048
     16 C11        10.3683    2.2010   -0.0770 C.1       1 <0>         0.0848
     17 C12        11.6864    2.8561   -0.0822 C.3       1 <0>         0.1604
     18 C13        11.5012    4.3748   -0.0650 C.3       1 <0>         0.1695
     19 C14        11.2568    4.9497    1.3402 C.3       1 <0>        -0.1878
     20 C15        12.1686    6.1196    0.9345 C.3       1 <0>        -0.1176
     21 C16        12.8252    5.1569   -0.0689 C.3       1 <0>        -0.1720
     22 O2         10.5641    4.8306   -1.0428 O.3       1 <0>        -0.8608
     23 O3         12.4233    2.4530    1.0739 O.3       1 <0>        -0.5514
     24 N5          6.7464   -2.3038   -0.0885 N.pl3     1 <0>        -0.7616
     25 H1         -0.8931    1.9736    0.0252 H         1 <0>         0.1646
     26 H2          1.6736    2.7966    0.0008 H         1 <0>         0.1649
     27 H3         -0.8667   -0.6456    0.0074 H         1 <0>         0.2191
     28 H4          6.9792    2.8821   -0.0386 H         1 <0>         0.2226
     29 H5         12.2324    2.5668   -0.9801 H         1 <0>         0.1268
     30 H6         10.2223    5.2436    1.5178 H         1 <0>         0.0467
     31 H7         11.6664    4.3342    2.1411 H         1 <0>         0.0499
     32 H8         11.6357    6.9453    0.4628 H         1 <0>         0.0704
     33 H9         12.8393    6.4463    1.7291 H         1 <0>         0.0436
     34 H10        13.6637    4.5981    0.3467 H         1 <0>         0.0590
     35 H11        13.0570    5.6182   -1.0290 H         1 <0>         0.0525
     36 H12        11.9957    2.6789    1.9114 H         1 <0>         0.3735
     37 H13         5.8885   -2.7564   -0.0844 H         1 <0>         0.4524
     38 H14         7.5673   -2.8204   -0.1015 H         1 <0>         0.4385
     39 H15         8.7797   -0.8230   -0.0938 H         1 <0>         0.4637
@<TRIPOS>BOND
     1    1    5 2
     2    1    2 1
     3    1   25 1
     4    2    3 2
     5    2   26 1
     6    3    4 1
     7    3    6 1
     8    4    5 1
     9    5   27 1
    10    6   14 2
    11    6    7 1
    12    7    8 2
    13    8   13 1
    14    8    9 1
    15    9   10 2
    16    9   24 1
    17   10   11 1
    18   10   39 1
    19   11   12 2
    20   11   15 1
    21   12   13 1
    22   12   28 1
    23   13   14 1
    24   15   16 3
    25   16   17 1
    26   17   18 1
    27   17   23 1
    28   17   29 1
    29   18   21 1
    30   18   19 1
    31   18   22 1
    32   19   20 1
    33   19   30 1
    34   19   31 1
    35   20   21 1
    36   20   32 1
    37   20   33 1
    38   21   34 1
    39   21   35 1
    40   23   36 1
    41   24   37 1
    42   24   38 1
