@<TRIPOS>MOLECULE
CHEMBL512812
   37    41     0     0     0
SMALL
USER_CHARGES

@<TRIPOS>ATOM
      1 C1         -0.0162    1.3451    0.0094 C.2       1 <0>        -0.2249
      2 C2          1.3225    1.7763   -0.0010 C.2       1 <0>        -0.1235
      3 C3          2.0959    0.6543   -0.0144 C.2       1 <0>        -0.0073
      4 O1          1.2782   -0.4173   -0.0124 O.3       1 <0>        -0.1487
      5 C4          0.0021   -0.0041    0.0020 C.2       1 <0>         0.0010
      6 C5          3.5677    0.6188   -0.0291 C.ar      1 <0>         0.4083
      7 C6          4.2734   -0.4010    0.6510 C.ar      1 <0>        -0.1549
      8 C7          5.6790   -0.3802    0.5989 C.ar      1 <0>         0.3616
      9 N1          6.2899    0.5856   -0.0804 N.ar      1 <0>        -0.5802
     10 C8          5.5905    1.5202   -0.7032 C.ar      1 <0>         0.6209
     11 N2          4.2647    1.5429   -0.6876 N.ar      1 <0>        -0.5510
     12 N3          6.2669    2.5076   -1.3991 N.pl3     1 <0>        -0.8039
     13 N4          6.0998   -1.4584    1.3276 N.pl3     1 <0>        -0.3799
     14 N5          4.9441   -2.0995    1.7988 N.2       1 <0>         0.0019
     15 N6          3.9043   -1.4608    1.3883 N.2       1 <0>        -0.1691
     16 C9          7.4865   -1.8648    1.5687 C.3       1 <0>         0.1826
     17 C10         7.9940   -1.2001    2.8224 C.ar      1 <0>        -0.1653
     18 C11         8.6092    0.0433    2.7415 C.ar      1 <0>        -0.0422
     19 C12         9.0777    0.6665    3.8630 C.ar      1 <0>        -0.1448
     20 C13         8.9399    0.0530    5.1058 C.ar      1 <0>         0.1407
     21 C14         8.3168   -1.2070    5.1899 C.ar      1 <0>        -0.1872
     22 C15         7.8402   -1.8226    4.0270 C.ar      1 <0>        -0.0023
     23 C16         8.3265   -1.5758    6.6018 C.2       1 <0>         0.0837
     24 N7          8.9033   -0.6118    7.2608 N.2       1 <0>        -0.2482
     25 N8          9.2935    0.4043    6.3824 N.pl3     1 <0>        -0.5089
     26 H1          9.7425    1.2258    6.6361 H         1 <0>         0.4415
     27 H2         -0.8933    1.9750    0.0252 H         1 <0>         0.1582
     28 H3          1.6703    2.7988    0.0008 H         1 <0>         0.1590
     29 H4         -0.8670   -0.6452    0.0072 H         1 <0>         0.2133
     30 H5          7.2366    2.5058   -1.4240 H         1 <0>         0.4203
     31 H6          5.7711    3.2012   -1.8618 H         1 <0>         0.4218
     32 H7          7.5325   -2.9473    1.6872 H         1 <0>         0.1147
     33 H8          8.1052   -1.5653    0.7227 H         1 <0>         0.1119
     34 H9          8.7186    0.5227    1.7799 H         1 <0>         0.1350
     35 H10         9.5541    1.6327    3.7862 H         1 <0>         0.1294
     36 H11         7.3567   -2.7868    4.0822 H         1 <0>         0.1357
     37 H12         7.9267   -2.4856    7.0247 H         1 <0>         0.2008
@<TRIPOS>BOND
     1    1    5 2
     2    1    2 1
     3    1   27 1
     4    2    3 2
     5    2   28 1
     6    3    4 1
     7    3    6 1
     8    4    5 1
     9    5   29 1
    10    6   11 ar
    11    6    7 ar
    12    7   15 1
    13    7    8 ar
    14    8    9 ar
    15    8   13 1
    16    9   10 ar
    17   10   11 ar
    18   10   12 1
    19   12   30 1
    20   12   31 1
    21   13   14 1
    22   13   16 1
    23   14   15 2
    24   16   17 1
    25   16   32 1
    26   16   33 1
    27   17   22 ar
    28   17   18 ar
    29   18   19 ar
    30   18   34 1
    31   19   20 ar
    32   19   35 1
    33   20   25 1
    34   20   21 ar
    35   21   22 ar
    36   21   23 1
    37   22   36 1
    38   23   24 2
    39   23   37 1
    40   24   25 1
    41   25   26 1
