@<TRIPOS>MOLECULE
CHEMBL392136
   35    38     0     0     0
SMALL
USER_CHARGES

@<TRIPOS>ATOM
      1 C1         -0.0184    1.5028    0.0103 C.3       1 <0>        -0.1221
      2 C2          0.0021   -0.0041    0.0020 C.ar      1 <0>        -0.0561
      3 C3          0.0057   -0.6864   -1.2014 C.ar      1 <0>        -0.1264
      4 C4          0.0239   -2.0660   -1.2155 C.ar      1 <0>        -0.0709
      5 C5          0.0392   -2.7726   -0.0132 C.ar      1 <0>        -0.0454
      6 C6          0.0359   -2.0792    1.1967 C.ar      1 <0>        -0.0709
      7 C7          0.0229   -0.6994    1.1979 C.ar      1 <0>        -0.1231
      8 C8          0.0583   -4.2540   -0.0214 C.2       1 <0>         0.1054
      9 C9          0.0697   -5.1259    1.1643 C.2       1 <0>         0.5204
     10 O1          0.0652   -4.7660    2.3271 O.2       1 <0>        -0.4767
     11 N1          0.0855   -6.3958    0.7204 N.am      1 <0>        -0.3500
     12 C10         0.1020   -7.6344    1.3577 C.ar      1 <0>         0.0933
     13 C11         0.1032   -7.7309    2.7384 C.ar      1 <0>        -0.0941
     14 C12         0.1194   -8.9758    3.3417 C.ar      1 <0>        -0.0341
     15 C13         0.1348  -10.1275    2.5707 C.ar      1 <0>        -0.0877
     16 C14         0.1342  -10.0470    1.1936 C.ar      1 <0>        -0.0811
     17 C15         0.1171   -8.7982    0.5715 C.ar      1 <0>         0.1438
     18 N2          0.1148   -8.6974   -0.7894 N.2       1 <0>        -0.5762
     19 C16         0.0988   -7.5362   -1.3908 C.2       1 <0>         0.6921
     20 N3          0.0846   -6.3590   -0.6832 N.pl3     1 <0>        -0.3010
     21 N4          0.0623   -5.0188   -1.0855 N.2       1 <0>        -0.1574
     22 N5          0.0977   -7.4925   -2.7655 N.pl3     1 <0>        -0.8059
     23 Cl1         0.1209   -9.0960    5.0736 Cl        1 <0>        -0.0521
     24 H1          1.0042    1.8801    0.0026 H         1 <0>         0.0768
     25 H2         -0.5455    1.8639   -0.8728 H         1 <0>         0.0708
     26 H3         -0.5286    1.8543    0.9071 H         1 <0>         0.0713
     27 H4         -0.0062   -0.1381   -2.1318 H         1 <0>         0.1321
     28 H5          0.0260   -2.5976   -2.1556 H         1 <0>         0.1329
     29 H6          0.0477   -2.6209    2.1309 H         1 <0>         0.1465
     30 H7          0.0244   -0.1612    2.1342 H         1 <0>         0.1332
     31 H8          0.0920   -6.8363    3.3434 H         1 <0>         0.1547
     32 H9          0.1477  -11.0945    3.0514 H         1 <0>         0.1479
     33 H10         0.1470  -10.9482    0.5986 H         1 <0>         0.1536
     34 H11         0.1087   -8.3167   -3.2769 H         1 <0>         0.4345
     35 H12         0.0859   -6.6376   -3.2236 H         1 <0>         0.4218
@<TRIPOS>BOND
     1    1    2 1
     2    1   24 1
     3    1   25 1
     4    1   26 1
     5    2    7 ar
     6    2    3 ar
     7    3    4 ar
     8    3   27 1
     9    4    5 ar
    10    4   28 1
    11    5    6 ar
    12    5    8 1
    13    6    7 ar
    14    6   29 1
    15    7   30 1
    16    8   21 2
    17    8    9 1
    18    9   10 2
    19    9   11 am
    20   11   20 1
    21   11   12 1
    22   12   17 ar
    23   12   13 ar
    24   13   14 ar
    25   13   31 1
    26   14   15 ar
    27   14   23 1
    28   15   16 ar
    29   15   32 1
    30   16   17 ar
    31   16   33 1
    32   17   18 1
    33   18   19 2
    34   19   20 1
    35   19   22 1
    36   20   21 1
    37   22   34 1
    38   22   35 1
