@<TRIPOS>MOLECULE
CHEMBL610111
   65    69     0     0     0
SMALL
USER_CHARGES

@<TRIPOS>ATOM
      1 C1         -1.4434    2.2020   -1.1137 C.3       1 <0>        -0.1680
      2 C2         -1.3639    0.6769   -1.0197 C.3       1 <0>         0.1135
      3 N1         -0.5771    0.1589   -2.1416 N.am      1 <0>        -0.7270
      4 C3         -0.3725   -1.1675   -2.2655 C.2       1 <0>         0.5160
      5 O1         -0.8397   -1.9322   -1.4483 O.2       1 <0>        -0.5036
      6 C4          0.4370   -1.7005   -3.4196 C.3       1 <0>         0.0317
      7 H1          1.4221   -1.2345   -3.4435 H         1 <0>         0.1229
      8 C5         -0.3074   -1.4722   -4.7598 C.3       1 <0>         0.0508
      9 H2         -1.3813   -1.6131   -4.6372 H         1 <0>         0.0952
     10 C6          0.2959   -2.5790   -5.6585 C.3       1 <0>         0.0827
     11 H3         -0.4786   -3.0328   -6.2767 H         1 <0>         0.0901
     12 C7          0.8621   -3.6084   -4.6612 C.3       1 <0>         0.3135
     13 O2          0.5558   -3.1370   -3.3367 O.3       1 <0>        -0.3267
     14 N2          0.2364   -4.9142   -4.8841 N.pl3     1 <0>        -0.4761
     15 C8         -0.8492   -5.4111   -4.2264 C.2       1 <0>         0.2839
     16 N3         -1.1367   -6.5983   -4.6755 N.2       1 <0>        -0.4652
     17 C9         -0.2565   -6.9382   -5.6475 C.ar      1 <0>        -0.0825
     18 C10         0.6321   -5.8587   -5.7972 C.ar      1 <0>         0.3075
     19 N4          1.6001   -5.9405   -6.7031 N.ar      1 <0>        -0.5318
     20 C11         1.7270   -7.0144   -7.4540 C.ar      1 <0>         0.3531
     21 N5          0.9152   -8.0507   -7.3515 N.ar      1 <0>        -0.5135
     22 C12        -0.0771   -8.0631   -6.4683 C.ar      1 <0>         0.4926
     23 N6         -0.9264   -9.1571   -6.3695 N.am      1 <0>        -0.6490
     24 C13        -0.7401  -10.2289   -7.1652 C.2       1 <0>         0.6939
     25 O3          0.1717  -10.2378   -7.9694 O.2       1 <0>        -0.4973
     26 N7         -1.5645  -11.2908   -7.0693 N.am      1 <0>        -0.6808
     27 C14        -1.4323  -12.3636   -7.9619 C.ar      1 <0>         0.1569
     28 C15        -2.5604  -13.0414   -8.4044 C.ar      1 <0>        -0.1286
     29 C16        -2.4305  -14.0977   -9.2840 C.ar      1 <0>        -0.1082
     30 C17        -1.1713  -14.4823   -9.7260 C.ar      1 <0>         0.1179
     31 C18        -0.0431  -13.8042   -9.2833 C.ar      1 <0>        -0.1165
     32 C19        -0.1739  -12.7445   -8.4078 C.ar      1 <0>        -0.0923
     33 N8         -1.0394  -15.5530  -10.6170 N.pl3     1 <0>        -1.0443
     34 S1         -0.0395  -15.4191  -11.9302 S.o2      1 <0>         2.7134
     35 O4          1.2145  -14.9637  -11.4411 O.2       1 <0>        -0.9122
     36 O5         -0.1764  -16.6249  -12.6695 O.2       1 <0>        -0.9222
     37 C20        -0.6824  -14.1303  -12.9452 C.ar      1 <0>        -0.2334
     38 N9         -1.6365  -14.4105  -13.8102 N.ar      1 <0>        -0.4371
     39 C21        -2.1436  -13.4684  -14.5890 C.ar      1 <0>         0.1294
     40 C22        -1.6580  -12.1744  -14.4855 C.ar      1 <0>        -0.1691
     41 C23        -0.6545  -11.9187  -13.5643 C.ar      1 <0>         0.1329
     42 N10        -0.2001  -12.9106  -12.8155 N.ar      1 <0>        -0.4251
     43 O6          1.3388   -2.0456   -6.4769 O.3       1 <0>        -0.5312
     44 O7         -0.0227   -0.1748   -5.2868 O.3       1 <0>        -0.5360
     45 H4         -0.4379    2.6212   -1.0766 H         1 <0>         0.0647
     46 H5         -1.9201    2.4838   -2.0526 H         1 <0>         0.0637
     47 H6         -2.0289    2.5875   -0.2790 H         1 <0>         0.0794
     48 H7         -0.8873    0.3952   -0.0808 H         1 <0>         0.0733
     49 H8         -2.3694    0.2577   -1.0568 H         1 <0>         0.0728
     50 H9         -0.2033    0.7704   -2.7952 H         1 <0>         0.3980
     51 H10         1.9424   -3.6872   -4.7831 H         1 <0>         0.1338
     52 H11        -1.3909   -4.8955   -3.4473 H         1 <0>         0.2286
     53 H12         2.5246   -7.0489   -8.1813 H         1 <0>         0.2126
     54 H13        -1.6539   -9.1500   -5.7279 H         1 <0>         0.4246
     55 H14        -2.2492  -11.3128   -6.3826 H         1 <0>         0.4097
     56 H15        -3.5395  -12.7425   -8.0603 H         1 <0>         0.1318
     57 H16        -3.3080  -14.6252   -9.6279 H         1 <0>         0.1331
     58 H17         0.9362  -14.1031   -9.6269 H         1 <0>         0.1623
     59 H18         0.7031  -12.2143   -8.0670 H         1 <0>         0.1510
     60 H19        -1.5337  -16.3738  -10.4654 H         1 <0>         0.4313
     61 H20        -2.9251  -13.7048  -15.2960 H         1 <0>         0.1828
     62 H21        -2.0518  -11.3845  -15.1079 H         1 <0>         0.1603
     63 H22        -0.2516  -10.9225  -13.4564 H         1 <0>         0.1833
     64 H23         1.0467   -1.3516   -7.0836 H         1 <0>         0.3977
     65 H24        -0.3021    0.5524   -4.7139 H         1 <0>         0.3847
@<TRIPOS>BOND
     1    1    2 1
     2    1   45 1
     3    1   46 1
     4    1   47 1
     5    2    3 1
     6    2   48 1
     7    2   49 1
     8    3    4 am
     9    3   50 1
    10    4    5 2
    11    4    6 1
    12    6    7 1
    13    6   13 1
    14    6    8 1
    15    8    9 1
    16    8   10 1
    17    8   44 1
    18   10   11 1
    19   10   12 1
    20   10   43 1
    21   12   13 1
    22   12   14 1
    23   12   51 1
    24   14   18 1
    25   14   15 1
    26   15   16 2
    27   15   52 1
    28   16   17 1
    29   17   22 ar
    30   17   18 ar
    31   18   19 ar
    32   19   20 ar
    33   20   21 ar
    34   20   53 1
    35   21   22 ar
    36   22   23 1
    37   23   24 am
    38   23   54 1
    39   24   25 2
    40   24   26 am
    41   26   27 1
    42   26   55 1
    43   27   32 ar
    44   27   28 ar
    45   28   29 ar
    46   28   56 1
    47   29   30 ar
    48   29   57 1
    49   30   31 ar
    50   30   33 1
    51   31   32 ar
    52   31   58 1
    53   32   59 1
    54   33   34 1
    55   33   60 1
    56   34   35 2
    57   34   36 2
    58   34   37 1
    59   37   42 ar
    60   37   38 ar
    61   38   39 ar
    62   39   40 ar
    63   39   61 1
    64   40   41 ar
    65   40   62 1
    66   41   42 ar
    67   41   63 1
    68   43   64 1
    69   44   65 1
