@<TRIPOS>MOLECULE
CHEMBL418564
   62    67     0     0     0
SMALL
USER_CHARGES

@<TRIPOS>ATOM
      1 C1         -0.0178    1.4648    0.0101 C.3       1 <0>        -0.0472
      2 N1          0.0021   -0.0041    0.0020 N.4       1 <0>        -0.3846
      3 C2         -1.3762   -0.5105    0.0016 C.3       1 <0>        -0.0193
      4 C3         -1.3581   -2.0376   -0.1225 C.3       1 <0>         0.0911
      5 N2         -0.5114   -2.5826    0.9500 N.pl3     1 <0>        -1.0146
      6 C4          0.8341   -2.0147    1.1271 C.3       1 <0>         0.0912
      7 C5          0.7126   -0.4887    1.1922 C.3       1 <0>        -0.0191
      8 S1         -1.0575   -3.8004    1.9303 S.o2      1 <0>         2.6900
      9 O1         -0.3129   -3.7147    3.1376 O.2       1 <0>        -0.9385
     10 O2         -2.4768   -3.7369    1.9046 O.2       1 <0>        -0.9380
     11 C6         -0.6076   -5.3240    1.1683 C.ar      1 <0>        -0.6847
     12 C7         -1.4688   -5.9295    0.2724 C.ar      1 <0>        -0.0175
     13 C8         -1.1159   -7.1249   -0.3255 C.ar      1 <0>        -0.1290
     14 C9          0.0985   -7.7145   -0.0278 C.ar      1 <0>        -0.0141
     15 C10         0.9601   -7.1086    0.8674 C.ar      1 <0>        -0.1292
     16 C11         0.6090   -5.9110    1.4620 C.ar      1 <0>        -0.0179
     17 C12         0.4828   -9.0182   -0.6788 C.3       1 <0>        -0.1124
     18 C13         1.2301   -8.7358   -1.9837 C.3       1 <0>         0.1500
     19 N3          1.6037  -10.0031   -2.6166 N.pl3     1 <0>        -0.3619
     20 C14         2.7625  -10.6891   -2.4075 C.2       1 <0>         0.3710
     21 C15         2.6978  -11.8367   -3.2123 C.2       1 <0>        -0.2643
     22 C16         1.4692  -11.7997   -3.8957 C.2       1 <0>         0.1371
     23 N4          0.8289  -10.7212   -3.5359 N.2       1 <0>        -0.2659
     24 C17         3.8300  -12.7632   -3.1800 C.2       1 <0>         0.4044
     25 N5          4.1073  -13.9013   -3.7816 N.2       1 <0>        -0.5127
     26 C18         5.3082  -14.3397   -3.3832 C.2       1 <0>         0.3560
     27 N6          5.8182  -13.4843   -2.5173 N.2       1 <0>        -0.2983
     28 N7          4.8854  -12.4508   -2.3632 N.pl3     1 <0>        -0.3775
     29 C19         4.8551  -11.3090   -1.6164 C.2       1 <0>         0.6959
     30 N8          3.8428  -10.4772   -1.6431 N.2       1 <0>        -0.5680
     31 N9          5.9277  -11.0200   -0.8055 N.pl3     1 <0>        -0.8007
     32 C20         5.9596  -15.5849   -3.8409 C.2       1 <0>         0.0360
     33 C21         7.1751  -16.0432   -3.4401 C.2       1 <0>        -0.1333
     34 C22         7.3978  -17.2548   -4.1241 C.2       1 <0>        -0.2202
     35 C23         6.3184  -17.4738   -4.9006 C.2       1 <0>         0.0000
     36 O3          5.4495  -16.4657   -4.7231 O.3       1 <0>        -0.1521
     37 H1          1.0047    1.8421    0.0024 H         1 <0>         0.1262
     38 H2         -0.5450    1.8259   -0.8730 H         1 <0>         0.1264
     39 H3         -0.5280    1.8163    0.9069 H         1 <0>         0.1233
     40 H4         -1.8678   -0.2272    0.9323 H         1 <0>         0.1365
     41 H5         -1.9199   -0.0838   -0.8413 H         1 <0>         0.1469
     42 H6         -2.3718   -2.4253   -0.0215 H         1 <0>         0.1396
     43 H7         -0.9491   -2.3215   -1.0921 H         1 <0>         0.1005
     44 H8          1.2698   -2.3873    2.0542 H         1 <0>         0.1394
     45 H9          1.4645   -2.2963    0.2836 H         1 <0>         0.1003
     46 H10         1.7080   -0.0460    1.2266 H         1 <0>         0.1467
     47 H11         0.1578   -0.2061    2.0868 H         1 <0>         0.1365
     48 H12        -2.4175   -5.4688    0.0398 H         1 <0>         0.1420
     49 H13        -1.7890   -7.5983   -1.0248 H         1 <0>         0.1404
     50 H14         1.9087   -7.5694    1.1002 H         1 <0>         0.1395
     51 H15         1.2837   -5.4357    2.1586 H         1 <0>         0.1416
     52 H16         1.1273   -9.5841   -0.0061 H         1 <0>         0.0901
     53 H17        -0.4161   -9.5964   -0.8927 H         1 <0>         0.0944
     54 H18         0.5856   -8.1699   -2.6563 H         1 <0>         0.1031
     55 H19         2.1290   -8.1576   -1.7698 H         1 <0>         0.1007
     56 H20         1.1139  -12.5407   -4.5965 H         1 <0>         0.2044
     57 H21         6.6868  -11.6230   -0.7720 H         1 <0>         0.4281
     58 H22         5.9251  -10.2132   -0.2670 H         1 <0>         0.4296
     59 H23         7.8415  -15.5700   -2.7341 H         1 <0>         0.1602
     60 H24         8.2689  -17.8879   -4.0420 H         1 <0>         0.1607
     61 H25         6.1744  -18.3216   -5.5540 H         1 <0>         0.2156
     62 H26         0.4772   -0.3282   -0.8270 H         1 <0>         0.4258
@<TRIPOS>BOND
     1    1    2 1
     2    1   37 1
     3    1   38 1
     4    1   39 1
     5    2    7 1
     6    2    3 1
     7    2   62 1
     8    3    4 1
     9    3   40 1
    10    3   41 1
    11    4    5 1
    12    4   42 1
    13    4   43 1
    14    5    6 1
    15    5    8 1
    16    6    7 1
    17    6   44 1
    18    6   45 1
    19    7   46 1
    20    7   47 1
    21    8    9 2
    22    8   10 2
    23    8   11 1
    24   11   16 ar
    25   11   12 ar
    26   12   13 ar
    27   12   48 1
    28   13   14 ar
    29   13   49 1
    30   14   15 ar
    31   14   17 1
    32   15   16 ar
    33   15   50 1
    34   16   51 1
    35   17   18 1
    36   17   52 1
    37   17   53 1
    38   18   19 1
    39   18   54 1
    40   18   55 1
    41   19   23 1
    42   19   20 1
    43   20   30 1
    44   20   21 2
    45   21   22 1
    46   21   24 1
    47   22   23 2
    48   22   56 1
    49   24   28 1
    50   24   25 2
    51   25   26 1
    52   26   27 2
    53   26   32 1
    54   27   28 1
    55   28   29 1
    56   29   30 2
    57   29   31 1
    58   31   57 1
    59   31   58 1
    60   32   36 1
    61   32   33 2
    62   33   34 1
    63   33   59 1
    64   34   35 2
    65   34   60 1
    66   35   36 1
    67   35   61 1
