@<TRIPOS>MOLECULE
CHEMBL353323
   54    58     0     0     0
SMALL
USER_CHARGES

@<TRIPOS>ATOM
      1 C1         -8.5212   -6.8229   -4.5455 C.3       1 <0>        -0.1033
      2 C2         -7.6718   -5.9875   -3.6225 C.2       1 <0>         0.1125
      3 C3         -6.5382   -6.3850   -3.0133 C.2       1 <0>        -0.2935
      4 C4         -6.0559   -5.3116   -2.2432 C.2       1 <0>         0.0491
      5 N1         -6.8752   -4.3089   -2.3893 N.2       1 <0>        -0.2907
      6 O1         -7.9090   -4.7154   -3.2679 O.3       1 <0>        -0.0467
      7 C5         -4.8094   -5.3197   -1.3963 C.3       1 <0>         0.0666
      8 N2         -3.6895   -4.7644   -2.1680 N.4       1 <0>        -0.3816
      9 C6         -3.4096   -5.6312   -3.3325 C.3       1 <0>        -0.0111
     10 C7         -1.8693   -5.5934   -3.4927 C.3       1 <0>        -0.1374
     11 C8         -1.4011   -5.5661   -2.0139 C.3       1 <0>        -0.1442
     12 C9         -2.4829   -4.7100   -1.3224 C.3       1 <0>         0.0029
     13 H1         -2.1391   -3.6796   -1.2327 H         1 <0>         0.1442
     14 C10        -2.7920   -5.2813    0.0629 C.3       1 <0>         0.1056
     15 N3         -1.6271   -5.1069    0.9340 N.pl3     1 <0>        -0.5779
     16 C11        -1.4131   -3.8328    1.6247 C.3       1 <0>         0.0712
     17 C12        -0.7381   -6.1352    1.1027 C.2       1 <0>         0.6631
     18 N4          0.3463   -5.9570    1.9276 N.pl3     1 <0>        -0.7039
     19 C13         0.9585   -7.0809    2.4818 C.2       1 <0>         0.6287
     20 N5          0.8627   -8.2169    1.6948 N.pl3     1 <0>        -0.3818
     21 C14        -0.0942   -8.3007    0.7044 C.2       1 <0>         0.5016
     22 N6         -0.9454   -7.2792    0.4721 N.2       1 <0>        -0.5460
     23 N7          0.0339   -9.4718    0.1356 N.2       1 <0>        -0.4840
     24 C15         1.0425  -10.1479    0.7152 C.2       1 <0>         0.3288
     25 N8          1.5726   -9.4058    1.6731 N.2       1 <0>        -0.2434
     26 C16         1.4877  -11.5062    0.3407 C.2       1 <0>         0.0348
     27 C17         0.9554  -12.2770   -0.6447 C.2       1 <0>        -0.1272
     28 C18         1.6814  -13.4845   -0.6524 C.2       1 <0>        -0.2205
     29 C19         2.6113  -13.3922    0.3185 C.2       1 <0>        -0.0011
     30 O2          2.4952  -12.1936    0.9125 O.3       1 <0>        -0.1583
     31 N9          1.5658   -7.0637    3.6341 N.2       1 <0>        -0.6511
     32 H2         -9.3715   -6.2339   -4.8892 H         1 <0>         0.0945
     33 H3         -7.9257   -7.1362   -5.4030 H         1 <0>         0.1074
     34 H4         -8.8806   -7.7026   -4.0117 H         1 <0>         0.1085
     35 H5         -6.0796   -7.3589   -3.1007 H         1 <0>         0.1722
     36 H6         -4.9719   -4.7140   -0.5048 H         1 <0>         0.1534
     37 H7         -4.5763   -6.3432   -1.1027 H         1 <0>         0.1632
     38 H8         -3.7459   -6.6495   -3.1372 H         1 <0>         0.1390
     39 H9         -3.8938   -5.2354   -4.2253 H         1 <0>         0.1350
     40 H10        -1.5074   -6.4875   -4.0004 H         1 <0>         0.1220
     41 H11        -1.5535   -4.6926   -4.0189 H         1 <0>         0.0971
     42 H12        -1.3818   -6.5731   -1.5971 H         1 <0>         0.1276
     43 H13        -0.4226   -5.0936   -1.9281 H         1 <0>         0.1058
     44 H14        -3.6467   -4.7566    0.4898 H         1 <0>         0.1112
     45 H15        -3.0241   -6.3426   -0.0253 H         1 <0>         0.1306
     46 H16        -1.9587   -3.8349    2.5683 H         1 <0>         0.0851
     47 H17        -0.3491   -3.6999    1.8205 H         1 <0>         0.0794
     48 H18        -1.7722   -3.0156    0.9991 H         1 <0>         0.0935
     49 H19         0.1343  -12.0147   -1.2954 H         1 <0>         0.1614
     50 H20         1.5225  -14.3252   -1.3115 H         1 <0>         0.1604
     51 H21         3.3332  -14.1540    0.5735 H         1 <0>         0.2149
     52 H22         1.6068   -6.2424    4.1486 H         1 <0>         0.3704
     53 H23         0.6797   -5.0668    2.1205 H         1 <0>         0.4312
     54 H24        -3.9230   -3.8360   -2.4866 H         1 <0>         0.4310
@<TRIPOS>BOND
     1    1    2 1
     2    1   32 1
     3    1   33 1
     4    1   34 1
     5    2    6 1
     6    2    3 2
     7    3    4 1
     8    3   35 1
     9    4    5 2
    10    4    7 1
    11    5    6 1
    12    7    8 1
    13    7   36 1
    14    7   37 1
    15    8   12 1
    16    8    9 1
    17    8   54 1
    18    9   10 1
    19    9   38 1
    20    9   39 1
    21   10   11 1
    22   10   40 1
    23   10   41 1
    24   11   12 1
    25   11   42 1
    26   11   43 1
    27   12   13 1
    28   12   14 1
    29   14   15 1
    30   14   44 1
    31   14   45 1
    32   15   16 1
    33   15   17 1
    34   16   46 1
    35   16   47 1
    36   16   48 1
    37   17   22 2
    38   17   18 1
    39   18   19 1
    40   18   53 1
    41   19   20 1
    42   19   31 2
    43   20   25 1
    44   20   21 1
    45   21   22 1
    46   21   23 2
    47   23   24 1
    48   24   25 2
    49   24   26 1
    50   26   30 1
    51   26   27 2
    52   27   28 1
    53   27   49 1
    54   28   29 2
    55   28   50 1
    56   29   30 1
    57   29   51 1
    58   31   52 1
