@<TRIPOS>MOLECULE
CHEMBL591999
   54    56     0     0     0
SMALL
USER_CHARGES

@<TRIPOS>ATOM
      1 C1         -0.0187    1.5258    0.0104 C.3       1 <0>        -0.1547
      2 C2          0.0021   -0.0041    0.0020 C.3       1 <0>        -0.1254
      3 C3         -1.4333   -0.5336    0.0129 C.3       1 <0>        -0.1177
      4 C4         -1.4126   -2.0635    0.0045 C.3       1 <0>        -0.0136
      5 C5         -2.7935   -2.5730    0.0149 C.1       1 <0>        -0.0795
      6 C6         -3.8949   -2.9793    0.0232 C.1       1 <0>        -0.1340
      7 C7         -5.2384   -3.4750    0.0334 C.ar      1 <0>         0.5060
      8 N1         -6.2446   -2.6047    0.0423 N.ar      1 <0>        -0.5737
      9 C8         -7.5060   -3.0157    0.0519 C.ar      1 <0>         0.5160
     10 C9         -7.7634   -4.3990    0.0525 C.ar      1 <0>        -0.1090
     11 C10        -6.6687   -5.2815    0.0430 C.ar      1 <0>         0.3134
     12 N2         -5.4377   -4.7857    0.0283 N.ar      1 <0>        -0.5385
     13 N3         -7.2025   -6.5461    0.0459 N.pl3     1 <0>        -0.4643
     14 C11        -8.5595   -6.4163    0.0568 C.2       1 <0>         0.2454
     15 N4         -8.8860   -5.1563    0.0607 N.2       1 <0>        -0.4521
     16 C12        -6.4518   -7.8041    0.0383 C.3       1 <0>         0.1469
     17 H1         -5.3813   -7.5997    0.0171 H         1 <0>         0.1323
     18 C13        -6.8524   -8.6511   -1.1873 C.3       1 <0>        -0.1357
     19 C14        -6.8395  -10.1084   -0.6625 C.3       1 <0>         0.1560
     20 H2         -5.8227  -10.5001   -0.6353 H         1 <0>         0.1162
     21 C15        -7.4094   -9.9608    0.7701 C.3       1 <0>         0.0587
     22 H3         -8.4973   -9.8991    0.7434 H         1 <0>         0.0747
     23 C16        -6.8050   -8.6363    1.2835 C.3       1 <0>         0.0628
     24 H4         -7.5350   -8.1041    1.8935 H         1 <0>         0.0724
     25 O1         -5.6262   -8.8987    2.0474 O.3       1 <0>        -0.5401
     26 O2         -6.9916  -11.0544    1.5896 O.3       1 <0>        -0.5316
     27 N5         -7.7013  -10.9632   -1.4827 N.am      1 <0>        -0.7295
     28 C17        -7.4704  -12.2894   -1.5468 C.2       1 <0>         0.5109
     29 O3         -6.5490  -12.7753   -0.9255 O.2       1 <0>        -0.5164
     30 C18        -8.3569  -13.1687   -2.3906 C.3       1 <0>        -0.1436
     31 C19        -7.8816  -14.6195   -2.2891 C.3       1 <0>        -0.1389
     32 N6         -8.5465   -2.1032    0.0615 N.pl3     1 <0>        -0.8141
     33 H5          1.0039    1.9031    0.0027 H         1 <0>         0.0554
     34 H6         -0.5459    1.8868   -0.8726 H         1 <0>         0.0543
     35 H7         -0.5289    1.8773    0.9072 H         1 <0>         0.0547
     36 H8          0.5123   -0.3556   -0.8948 H         1 <0>         0.0648
     37 H9          0.5293   -0.3651    0.8851 H         1 <0>         0.0649
     38 H10        -1.9435   -0.1821    0.9097 H         1 <0>         0.0696
     39 H11        -1.9605   -0.1726   -0.8702 H         1 <0>         0.0681
     40 H12        -0.9024   -2.4150   -0.8923 H         1 <0>         0.0958
     41 H13        -0.8854   -2.4246    0.8875 H         1 <0>         0.0967
     42 H14        -9.2604   -7.2380    0.0610 H         1 <0>         0.2205
     43 H15        -7.8503   -8.3779   -1.5301 H         1 <0>         0.0900
     44 H16        -6.1253   -8.5283   -1.9900 H         1 <0>         0.1000
     45 H17        -5.7833   -9.4203    2.8464 H         1 <0>         0.3858
     46 H18        -7.3201  -11.0130    2.4982 H         1 <0>         0.3742
     47 H19        -8.4382  -10.5746   -1.9797 H         1 <0>         0.4007
     48 H20        -9.3845  -13.0973   -2.0342 H         1 <0>         0.0925
     49 H21        -8.3092  -12.8426   -3.4295 H         1 <0>         0.0931
     50 H22        -8.5228  -15.2555   -2.8993 H         1 <0>         0.0622
     51 H23        -6.8540  -14.6909   -2.6455 H         1 <0>         0.0620
     52 H24        -7.9293  -14.9456   -1.2501 H         1 <0>         0.0622
     53 H25        -8.3573   -1.1519    0.0613 H         1 <0>         0.4124
     54 H26        -9.4650   -2.4150    0.0685 H         1 <0>         0.4208
@<TRIPOS>BOND
     1    1    2 1
     2    1   33 1
     3    1   34 1
     4    1   35 1
     5    2    3 1
     6    2   36 1
     7    2   37 1
     8    3    4 1
     9    3   38 1
    10    3   39 1
    11    4    5 1
    12    4   40 1
    13    4   41 1
    14    5    6 3
    15    6    7 1
    16    7   12 ar
    17    7    8 ar
    18    8    9 ar
    19    9   10 ar
    20    9   32 1
    21   10   15 1
    22   10   11 ar
    23   11   12 ar
    24   11   13 1
    25   13   14 1
    26   13   16 1
    27   14   15 2
    28   14   42 1
    29   16   17 1
    30   16   23 1
    31   16   18 1
    32   18   19 1
    33   18   43 1
    34   18   44 1
    35   19   20 1
    36   19   21 1
    37   19   27 1
    38   21   22 1
    39   21   23 1
    40   21   26 1
    41   23   24 1
    42   23   25 1
    43   25   45 1
    44   26   46 1
    45   27   28 am
    46   27   47 1
    47   28   29 2
    48   28   30 1
    49   30   31 1
    50   30   48 1
    51   30   49 1
    52   31   50 1
    53   31   51 1
    54   31   52 1
    55   32   53 1
    56   32   54 1
