@<TRIPOS>MOLECULE
CHEMBL374149
   75    81     0     0     0
SMALL
USER_CHARGES

@<TRIPOS>ATOM
      1 C1          0.2712   -0.1930    2.4016 C.ar      1 <0>        -0.1693
      2 C2          1.2060    0.8138    2.5884 C.ar      1 <0>        -0.0523
      3 C3          1.5590    1.5967    1.4999 C.ar      1 <0>        -0.1445
      4 C4          0.9715    1.3493    0.2736 C.ar      1 <0>         0.1038
      5 N1          0.0853    0.3830    0.1329 N.ar      1 <0>        -0.4801
      6 C5         -0.2739   -0.3814    1.1457 C.ar      1 <0>         0.1076
      7 C6          2.5701    2.7038    1.6521 C.3       1 <0>         0.0985
      8 N2          3.9164    2.1762    1.3934 N.3       1 <0>        -0.5190
      9 C7          4.0594    1.7627   -0.0089 C.3       1 <0>         0.0877
     10 C8          5.2783    0.8883   -0.1530 C.ar      1 <0>        -0.1322
     11 C9          6.4894    1.4324   -0.5524 C.ar      1 <0>        -0.0852
     12 C10         7.5842    0.5900   -0.6710 C.ar      1 <0>        -0.1762
     13 C11         7.4331   -0.7545   -0.3892 C.ar      1 <0>         0.1071
     14 N3          6.2654   -1.2376   -0.0122 N.ar      1 <0>        -0.4748
     15 C12         5.2044   -0.4652    0.1167 C.ar      1 <0>         0.1295
     16 C13         4.9459    3.1577    1.7604 C.3       1 <0>         0.0357
     17 C14         5.0773    3.2137    3.2838 C.3       1 <0>        -0.1076
     18 H1          4.1044    3.4263    3.7269 H         1 <0>         0.1224
     19 C15         5.5963    1.8691    3.8044 C.3       1 <0>        -0.1185
     20 C16         6.9821    1.6171    3.2086 C.3       1 <0>        -0.1404
     21 C17         7.9237    2.7700    3.5733 C.3       1 <0>         0.0165
     22 H2          8.0377    2.8195    4.6562 H         1 <0>         0.1459
     23 C18         9.2859    2.4868    2.9255 C.3       1 <0>         0.1098
     24 N4         10.1633    3.6485    3.1197 N.pl3     1 <0>        -0.5965
     25 C19         9.6374    4.9722    2.7482 C.3       1 <0>         0.0888
     26 C20         8.2800    5.1500    3.4321 C.3       1 <0>        -0.0219
     27 N5          7.3816    4.0395    3.0780 N.4       1 <0>        -0.3808
     28 C21         6.0681    4.3102    3.6727 C.3       1 <0>        -0.0037
     29 C22        11.4266    3.5053    3.6292 C.2       1 <0>         0.6714
     30 N6         12.2124    4.6195    3.7999 N.pl3     1 <0>        -0.6595
     31 C23        13.2520    4.5706    4.7282 C.2       1 <0>         0.6289
     32 N7         13.7916    3.3063    4.8994 N.pl3     1 <0>        -0.4290
     33 C24        13.0831    2.1872    4.5130 C.2       1 <0>         0.4991
     34 N8         11.8610    2.2981    3.9509 N.2       1 <0>        -0.5251
     35 N9         13.8166    1.1424    4.7992 N.2       1 <0>        -0.4811
     36 C25        14.9772    1.5422    5.3503 C.2       1 <0>         0.3442
     37 N10        14.9942    2.8626    5.4239 N.2       1 <0>        -0.2735
     38 C26        16.0621    0.6467    5.8026 C.2       1 <0>         0.0279
     39 C27        16.0595   -0.7109    5.7277 C.2       1 <0>        -0.1213
     40 C28        17.2841   -1.1495    6.2693 C.2       1 <0>        -0.2192
     41 C29        17.9666   -0.0497    6.6441 C.2       1 <0>         0.0000
     42 O1         17.2279    1.0338    6.3554 O.3       1 <0>        -0.1602
     43 N11        13.6773    5.6184    5.3747 N.2       1 <0>        -0.6691
     44 H3         -0.0240   -0.8249    3.2262 H         1 <0>         0.1388
     45 H4          1.6484    0.9844    3.5587 H         1 <0>         0.1331
     46 H5          1.2410    1.9547   -0.5792 H         1 <0>         0.1495
     47 H6         -1.0024   -1.1637    0.9918 H         1 <0>         0.1594
     48 H7          2.3484    3.4988    0.9401 H         1 <0>         0.0547
     49 H8          2.5241    3.1010    2.6661 H         1 <0>         0.0902
     50 H9          3.1742    1.2055   -0.3155 H         1 <0>         0.0994
     51 H10         4.1691    2.6456   -0.6387 H         1 <0>         0.0537
     52 H11         6.5778    2.4873   -0.7663 H         1 <0>         0.1261
     53 H12         8.5430    0.9796   -0.9800 H         1 <0>         0.1356
     54 H13         8.2810   -1.4173   -0.4792 H         1 <0>         0.1588
     55 H14         4.2657   -0.8960    0.4326 H         1 <0>         0.1533
     56 H15         5.9004    2.8636    1.3240 H         1 <0>         0.0731
     57 H16         4.6617    4.1404    1.3839 H         1 <0>         0.0537
     58 H17         5.6656    1.8998    4.8918 H         1 <0>         0.0799
     59 H18         4.9171    1.0724    3.5009 H         1 <0>         0.1102
     60 H19         7.3822    0.6837    3.6044 H         1 <0>         0.1164
     61 H20         6.9021    1.5442    2.1239 H         1 <0>         0.0920
     62 H21         9.7351    1.6093    3.3907 H         1 <0>         0.1531
     63 H22         9.1515    2.3061    1.8590 H         1 <0>         0.1025
     64 H23        10.3240    5.7491    3.0844 H         1 <0>         0.1283
     65 H24         9.5155    5.0300    1.6666 H         1 <0>         0.1131
     66 H25         8.4189    5.1660    4.5131 H         1 <0>         0.1392
     67 H26         7.8342    6.0917    3.1121 H         1 <0>         0.1527
     68 H27         5.6977    5.2729    3.3203 H         1 <0>         0.1348
     69 H28         6.1668    4.3392    4.7578 H         1 <0>         0.1343
     70 H29        15.2710   -1.3328    5.3304 H         1 <0>         0.1635
     71 H30        17.6133   -2.1736    6.3660 H         1 <0>         0.1618
     72 H31        18.9469   -0.0410    7.0972 H         1 <0>         0.2158
     73 H32        14.4044    5.5335    6.0112 H         1 <0>         0.3849
     74 H33        12.0473    5.4244    3.2844 H         1 <0>         0.4367
     75 H34         7.2864    3.9963    2.0744 H         1 <0>         0.4177
@<TRIPOS>BOND
     1    1    6 ar
     2    1    2 ar
     3    1   44 1
     4    2    3 ar
     5    2   45 1
     6    3    4 ar
     7    3    7 1
     8    4    5 ar
     9    4   46 1
    10    5    6 ar
    11    6   47 1
    12    7    8 1
    13    7   48 1
    14    7   49 1
    15    8    9 1
    16    8   16 1
    17    9   10 1
    18    9   50 1
    19    9   51 1
    20   10   15 ar
    21   10   11 ar
    22   11   12 ar
    23   11   52 1
    24   12   13 ar
    25   12   53 1
    26   13   14 ar
    27   13   54 1
    28   14   15 ar
    29   15   55 1
    30   16   17 1
    31   16   56 1
    32   16   57 1
    33   17   18 1
    34   17   28 1
    35   17   19 1
    36   19   20 1
    37   19   58 1
    38   19   59 1
    39   20   21 1
    40   20   60 1
    41   20   61 1
    42   21   22 1
    43   21   27 1
    44   21   23 1
    45   23   24 1
    46   23   62 1
    47   23   63 1
    48   24   25 1
    49   24   29 1
    50   25   26 1
    51   25   64 1
    52   25   65 1
    53   26   27 1
    54   26   66 1
    55   26   67 1
    56   27   28 1
    57   27   75 1
    58   28   68 1
    59   28   69 1
    60   29   34 2
    61   29   30 1
    62   30   31 1
    63   30   74 1
    64   31   32 1
    65   31   43 2
    66   32   37 1
    67   32   33 1
    68   33   34 1
    69   33   35 2
    70   35   36 1
    71   36   37 2
    72   36   38 1
    73   38   42 1
    74   38   39 2
    75   39   40 1
    76   39   70 1
    77   40   41 2
    78   40   71 1
    79   41   42 1
    80   41   72 1
    81   43   73 1
