@<TRIPOS>MOLECULE
CHEMBL85549
   48    51     0     0     0
SMALL
USER_CHARGES

@<TRIPOS>ATOM
      1 C1         -0.0158    1.3119    0.0093 C.ar      1 <0>         0.3645
      2 N1          1.0888    2.0360    0.0026 N.ar      1 <0>        -0.5868
      3 C2          2.2875    1.4625   -0.0119 C.ar      1 <0>         0.5090
      4 C3          2.3582    0.0588   -0.0202 C.ar      1 <0>        -0.1086
      5 C4          1.1547   -0.6659   -0.0126 C.ar      1 <0>         0.3138
      6 N2          0.0021   -0.0041    0.0020 N.ar      1 <0>        -0.5520
      7 N3          1.5110   -1.9908   -0.0227 N.pl3     1 <0>        -0.4715
      8 C5          2.8729   -2.0476   -0.0358 C.2       1 <0>         0.2608
      9 N4          3.3680   -0.8441   -0.0343 N.2       1 <0>        -0.4599
     10 C6          0.5956   -3.1347   -0.0195 C.3       1 <0>         0.3141
     11 C7          0.2093   -3.5183   -1.4652 C.3       1 <0>         0.0795
     12 H1          0.9741   -3.1842   -2.1663 H         1 <0>         0.0853
     13 C8          0.1372   -5.0615   -1.4375 C.3       1 <0>         0.0471
     14 H2          0.8663   -5.4903   -2.1250 H         1 <0>         0.0870
     15 C9          0.4884   -5.4276    0.0216 C.3       1 <0>         0.0505
     16 H3         -0.4201   -5.5508    0.6111 H         1 <0>         0.1001
     17 O1          1.2558   -4.3054    0.5091 O.3       1 <0>        -0.3472
     18 C10         1.3265   -6.7070    0.0627 C.3       1 <0>         0.0822
     19 O2          1.5418   -7.0919    1.4219 O.3       1 <0>        -0.5634
     20 O3         -1.1805   -5.5071   -1.7652 O.3       1 <0>        -0.5388
     21 O4         -1.0609   -2.9610   -1.8087 O.3       1 <0>        -0.5257
     22 N5          3.4393    2.2295   -0.0193 N.pl3     1 <0>        -0.6900
     23 C11         3.3458    3.6915   -0.0110 C.3       1 <0>         0.1521
     24 C12         3.2018    4.1852    1.4300 C.3       1 <0>        -0.1279
     25 C13         3.1042    5.7121    1.4386 C.3       1 <0>        -0.1161
     26 C14         4.3704    6.3075    0.8197 C.3       1 <0>        -0.1232
     27 C15         4.5144    5.8139   -0.6213 C.3       1 <0>        -0.1145
     28 C16         4.6120    4.2870   -0.6300 C.3       1 <0>        -0.1286
     29 H4         -0.9693    1.8187    0.0257 H         1 <0>         0.2043
     30 H5          3.4551   -2.9572   -0.0459 H         1 <0>         0.2221
     31 H6         -0.2954   -2.9051    0.5649 H         1 <0>         0.1233
     32 H7          0.7989   -7.5039   -0.4614 H         1 <0>         0.0670
     33 H8          2.2869   -6.5280   -0.4207 H         1 <0>         0.0609
     34 H9          2.0672   -7.8972    1.5241 H         1 <0>         0.3867
     35 H10        -1.2824   -6.4687   -1.7627 H         1 <0>         0.3873
     36 H11        -1.3526   -3.1708   -2.7065 H         1 <0>         0.3906
     37 H12         4.3085    1.7992   -0.0299 H         1 <0>         0.4159
     38 H13         2.4769    4.0033   -0.5905 H         1 <0>         0.0947
     39 H14         2.2998    3.7610    1.8710 H         1 <0>         0.0687
     40 H15         4.0708    3.8734    2.0094 H         1 <0>         0.0607
     41 H16         2.2352    6.0239    0.8592 H         1 <0>         0.0660
     42 H17         3.0016    6.0638    2.4652 H         1 <0>         0.0643
     43 H18         4.3008    7.3953    0.8258 H         1 <0>         0.0642
     44 H19         5.2393    5.9957    1.3991 H         1 <0>         0.0620
     45 H20         3.6454    6.1257   -1.2008 H         1 <0>         0.0661
     46 H21         5.4164    6.2381   -1.0623 H         1 <0>         0.0672
     47 H22         5.4809    3.9752   -0.0505 H         1 <0>         0.0677
     48 H23         4.7146    3.9353   -1.6566 H         1 <0>         0.0685
@<TRIPOS>BOND
     1    1    6 ar
     2    1    2 ar
     3    1   29 1
     4    2    3 ar
     5    3    4 ar
     6    3   22 1
     7    4    9 1
     8    4    5 ar
     9    5    6 ar
    10    5    7 1
    11    7    8 1
    12    7   10 1
    13    8    9 2
    14    8   30 1
    15   10   17 1
    16   10   11 1
    17   10   31 1
    18   11   12 1
    19   11   13 1
    20   11   21 1
    21   13   14 1
    22   13   15 1
    23   13   20 1
    24   15   16 1
    25   15   17 1
    26   15   18 1
    27   18   19 1
    28   18   32 1
    29   18   33 1
    30   19   34 1
    31   20   35 1
    32   21   36 1
    33   22   23 1
    34   22   37 1
    35   23   28 1
    36   23   24 1
    37   23   38 1
    38   24   25 1
    39   24   39 1
    40   24   40 1
    41   25   26 1
    42   25   41 1
    43   25   42 1
    44   26   27 1
    45   26   43 1
    46   26   44 1
    47   27   28 1
    48   27   45 1
    49   27   46 1
    50   28   47 1
    51   28   48 1
