@<TRIPOS>MOLECULE
CHEMBL314313
   54    57     0     0     0
SMALL
USER_CHARGES

@<TRIPOS>ATOM
      1 C1         -0.0164    1.3602    0.0095 C.2       1 <0>         0.2452
      2 N1          1.2002    1.8207    0.0004 N.2       1 <0>        -0.4508
      3 C2          2.0747    0.7847   -0.0135 C.ar      1 <0>        -0.1558
      4 C3          3.4764    0.6773   -0.0279 C.ar      1 <0>         0.5440
      5 N2          4.0206   -0.5342   -0.0400 N.ar      1 <0>        -0.6239
      6 C4          3.2653   -1.6255   -0.0386 C.ar      1 <0>         0.6306
      7 N3          1.9436   -1.5695   -0.0253 N.ar      1 <0>        -0.6043
      8 C5          1.3163   -0.3973   -0.0126 C.ar      1 <0>         0.3606
      9 N4          0.0021   -0.0041    0.0020 N.pl3     1 <0>        -0.4753
     10 C6         -1.1670   -0.8870    0.0084 C.3       1 <0>         0.3163
     11 C7         -1.5547   -1.2553    1.4577 C.3       1 <0>         0.0795
     12 H1         -1.1961   -0.4968    2.1535 H         1 <0>         0.0855
     13 C8         -3.0994   -1.2843    1.4372 C.3       1 <0>         0.0468
     14 H2         -3.5045   -0.5401    2.1230 H         1 <0>         0.0864
     15 C9         -3.4622   -0.9300   -0.0220 C.3       1 <0>         0.0506
     16 H3         -3.6135   -1.8375   -0.6064 H         1 <0>         0.0990
     17 O1         -2.3211   -0.1968   -0.5183 O.3       1 <0>        -0.3466
     18 C10        -4.7178   -0.0566   -0.0616 C.3       1 <0>         0.0822
     19 O2         -5.1027    0.1628   -1.4202 O.3       1 <0>        -0.5634
     20 O3         -3.5803   -2.5873    1.7734 O.3       1 <0>        -0.5393
     21 O4         -1.0317   -2.5390    1.8051 O.3       1 <0>        -0.5260
     22 N5          3.8820   -2.8657   -0.0520 N.pl3     1 <0>        -0.6961
     23 C11         5.3441   -2.9566   -0.0674 C.3       1 <0>         0.1472
     24 C12         5.7635   -4.4279   -0.0802 C.3       1 <0>        -0.1011
     25 C13         7.2676   -4.5214   -0.0960 C.2       1 <0>        -0.1183
     26 C14         7.8783   -4.6703    1.0356 C.2       1 <0>        -0.1481
     27 C15         9.3689   -4.7678    1.1800 C.3       1 <0>        -0.0910
     28 C16        10.0092   -5.0926   -0.1713 C.3       1 <0>        -0.1219
     29 C17         9.4480   -4.1236   -1.2196 C.3       1 <0>        -0.1205
     30 C18         7.9636   -4.4421   -1.4231 C.3       1 <0>        -0.0838
     31 N6          4.2719    1.8093   -0.0299 N.pl3     1 <0>        -0.8166
     32 H4         -0.9091    1.9679    0.0254 H         1 <0>         0.2192
     33 H5         -0.9651   -1.7869   -0.5725 H         1 <0>         0.1207
     34 H6         -5.5268   -0.5591    0.4686 H         1 <0>         0.0663
     35 H7         -4.5097    0.9007    0.4162 H         1 <0>         0.0611
     36 H8         -5.8934    0.7101   -1.5215 H         1 <0>         0.3863
     37 H9         -4.5444   -2.6623    1.7757 H         1 <0>         0.3867
     38 H10        -1.2454   -2.8204    2.7052 H         1 <0>         0.3893
     39 H11         3.3458   -3.6740   -0.0513 H         1 <0>         0.4146
     40 H12         5.7296   -2.4611   -0.9585 H         1 <0>         0.0678
     41 H13         5.7477   -2.4714    0.8213 H         1 <0>         0.0674
     42 H14         5.3781   -4.9233    0.8109 H         1 <0>         0.0745
     43 H15         5.3600   -4.9131   -0.9689 H         1 <0>         0.0759
     44 H16         7.2779   -4.7275    1.9314 H         1 <0>         0.1031
     45 H17         9.7593   -3.8181    1.5459 H         1 <0>         0.0734
     46 H18         9.6120   -5.5550    1.8936 H         1 <0>         0.0705
     47 H19        11.0904   -4.9723   -0.1027 H         1 <0>         0.0644
     48 H20         9.7687   -6.1175   -0.4538 H         1 <0>         0.0637
     49 H21         9.5615   -3.0980   -0.8684 H         1 <0>         0.0653
     50 H22         9.9819   -4.2530   -2.1611 H         1 <0>         0.0651
     51 H23         7.8627   -5.3956   -1.9415 H         1 <0>         0.0731
     52 H24         7.5066   -3.6562   -2.0244 H         1 <0>         0.0717
     53 H25         3.8635    2.6891   -0.0213 H         1 <0>         0.4198
     54 H26         5.2381    1.7231   -0.0398 H         1 <0>         0.4092
@<TRIPOS>BOND
     1    1    9 1
     2    1    2 2
     3    1   32 1
     4    2    3 1
     5    3    8 ar
     6    3    4 ar
     7    4    5 ar
     8    4   31 1
     9    5    6 ar
    10    6    7 ar
    11    6   22 1
    12    7    8 ar
    13    8    9 1
    14    9   10 1
    15   10   17 1
    16   10   11 1
    17   10   33 1
    18   11   12 1
    19   11   13 1
    20   11   21 1
    21   13   14 1
    22   13   15 1
    23   13   20 1
    24   15   16 1
    25   15   17 1
    26   15   18 1
    27   18   19 1
    28   18   34 1
    29   18   35 1
    30   19   36 1
    31   20   37 1
    32   21   38 1
    33   22   23 1
    34   22   39 1
    35   23   24 1
    36   23   40 1
    37   23   41 1
    38   24   25 1
    39   24   42 1
    40   24   43 1
    41   25   30 1
    42   25   26 2
    43   26   27 1
    44   26   44 1
    45   27   28 1
    46   27   45 1
    47   27   46 1
    48   28   29 1
    49   28   47 1
    50   28   48 1
    51   29   30 1
    52   29   49 1
    53   29   50 1
    54   30   51 1
    55   30   52 1
    56   31   53 1
    57   31   54 1
