@<TRIPOS>MOLECULE
CHEMBL267200
   35    38     0     0     0
SMALL
USER_CHARGES

@<TRIPOS>ATOM
      1 C1         -0.0167    1.3780    0.0096 C.ar      1 <0>        -0.1359
      2 C2          1.1706    2.0866    0.0021 C.ar      1 <0>        -0.0776
      3 C3          2.3773    1.4137   -0.0131 C.ar      1 <0>        -0.1623
      4 C4          2.3974    0.0291   -0.0207 C.ar      1 <0>         0.1236
      5 C5          1.2080   -0.6793   -0.0132 C.ar      1 <0>        -0.1605
      6 C6          0.0021   -0.0041    0.0020 C.ar      1 <0>        -0.0628
      7 C7          1.2281   -2.1862   -0.0220 C.3       1 <0>         0.1863
      8 N1          1.3684   -2.6807    1.3499 N.pl3     1 <0>        -0.3785
      9 C8          2.5449   -2.9302    1.9934 C.ar      1 <0>         0.3990
     10 C9          2.2068   -3.3879    3.2838 C.ar      1 <0>        -0.3228
     11 C10         0.7984   -3.3945    3.3638 C.2       1 <0>         0.1050
     12 N2          0.3177   -2.9731    2.2286 N.2       1 <0>        -0.2375
     13 C11         3.2519   -3.7225    4.1714 C.ar      1 <0>         0.3652
     14 N3          4.5074   -3.5905    3.7498 N.ar      1 <0>        -0.5614
     15 C12         4.7769   -3.1556    2.5260 C.ar      1 <0>         0.6171
     16 N4          3.8294   -2.8310    1.6620 N.ar      1 <0>        -0.5786
     17 N5          6.1004   -3.0368    2.1382 N.pl3     1 <0>        -0.8090
     18 C13         2.9595   -4.2065    5.5343 C.2       1 <0>         0.1052
     19 C14         3.6781   -5.1468    6.2411 C.2       1 <0>        -0.1982
     20 C15         3.0604   -5.3080    7.4801 C.2       1 <0>         0.0457
     21 N6          2.0207   -4.5146    7.5376 N.2       1 <0>        -0.2659
     22 H1          1.2554   -3.1435    6.1099 H         1 <0>         0.4402
     23 N7          1.9301   -3.8031    6.3348 N.pl3     1 <0>        -0.4602
     24 F1          3.5766   -0.6299   -0.0360 F         1 <0>        -0.1203
     25 H2         -0.9594    1.9048    0.0260 H         1 <0>         0.1333
     26 H3          1.1547    3.1665    0.0077 H         1 <0>         0.1350
     27 H4          3.3046    1.9675   -0.0193 H         1 <0>         0.1370
     28 H5         -0.9259   -0.5565    0.0083 H         1 <0>         0.1361
     29 H6          0.2975   -2.5595   -0.4494 H         1 <0>         0.1122
     30 H7          2.0689   -2.5348   -0.6216 H         1 <0>         0.1091
     31 H8          0.2166   -3.6938    4.2231 H         1 <0>         0.1920
     32 H9          6.8100   -3.2698    2.7572 H         1 <0>         0.4194
     33 H10         6.3183   -2.7206    1.2475 H         1 <0>         0.4186
     34 H11         4.5606   -5.6655    5.8968 H         1 <0>         0.1588
     35 H12         3.3855   -5.9771    8.2631 H         1 <0>         0.1926
@<TRIPOS>BOND
     1    1    6 ar
     2    1    2 ar
     3    1   25 1
     4    2    3 ar
     5    2   26 1
     6    3    4 ar
     7    3   27 1
     8    4    5 ar
     9    4   24 1
    10    5    6 ar
    11    5    7 1
    12    6   28 1
    13    7    8 1
    14    7   29 1
    15    7   30 1
    16    8   12 1
    17    8    9 1
    18    9   16 ar
    19    9   10 ar
    20   10   11 1
    21   10   13 ar
    22   11   12 2
    23   11   31 1
    24   13   14 ar
    25   13   18 1
    26   14   15 ar
    27   15   16 ar
    28   15   17 1
    29   17   32 1
    30   17   33 1
    31   18   19 2
    32   18   23 1
    33   19   20 1
    34   19   34 1
    35   20   21 2
    36   20   35 1
    37   21   23 1
    38   22   23 1
