@<TRIPOS>MOLECULE
CHEMBL456069
   42    44     0     0     0
SMALL
USER_CHARGES

@<TRIPOS>ATOM
      1 C1         -0.8080    1.1325   -2.7886 C.3       1 <0>        -0.1700
      2 C2         -0.4326   -0.3197   -2.6429 C.2       1 <0>         0.4994
      3 O1         -0.0781   -0.9547   -3.6133 O.2       1 <0>        -0.4651
      4 N1         -0.4909   -0.9127   -1.4340 N.am      1 <0>        -0.6580
      5 C3         -0.2464   -2.2773   -1.3161 C.ar      1 <0>         0.4402
      6 C4         -0.4120   -2.9197   -0.0928 C.ar      1 <0>        -0.3281
      7 C5         -0.1563   -4.2876   -0.0210 C.ar      1 <0>         0.4858
      8 N2          0.2352   -4.9312   -1.1166 N.ar      1 <0>        -0.5498
      9 C6          0.3826   -4.2860   -2.2667 C.ar      1 <0>         0.4711
     10 N3          0.1429   -2.9850   -2.3716 N.ar      1 <0>        -0.5365
     11 C7          0.8196   -5.0367   -3.4629 C.2       1 <0>         0.1397
     12 N4          1.1014   -6.3258   -3.5907 N.2       1 <0>        -0.4577
     13 C8          1.4789   -6.8303   -4.7387 C.2       1 <0>         0.0185
     14 C9          1.5878   -6.0237   -5.8310 C.2       1 <0>        -0.2046
     15 S1          1.1030   -4.4519   -5.1287 S.3       1 <0>         0.1115
     16 N5         -0.3076   -4.9684    1.1771 N.pl3     1 <0>        -0.5888
     17 C10        -0.2182   -6.4295    1.3523 C.3       1 <0>         0.1195
     18 C11        -1.0377   -6.7261    2.6330 C.3       1 <0>        -0.1335
     19 C12        -0.6947   -5.4960    3.5142 C.3       1 <0>        -0.1247
     20 C13        -0.5776   -4.3524    2.4845 C.3       1 <0>         0.1464
     21 H1         -1.5129   -3.7942    2.4452 H         1 <0>         0.0913
     22 C14         0.5729   -3.4194    2.8676 C.3       1 <0>         0.0416
     23 O2          1.7587   -4.1879    3.0807 O.3       1 <0>        -0.3791
     24 C15         2.8992   -3.4079    3.4452 C.3       1 <0>         0.0316
     25 H2         -1.8736    1.2126   -3.0032 H         1 <0>         0.0991
     26 H3         -0.5833    1.6606   -1.8619 H         1 <0>         0.0825
     27 H4         -0.2385    1.5747   -3.6060 H         1 <0>         0.0998
     28 H5         -0.7032   -0.3882   -0.6462 H         1 <0>         0.4208
     29 H6         -0.7309   -2.3706    0.7809 H         1 <0>         0.1438
     30 H7          1.7036   -7.8836   -4.8193 H         1 <0>         0.1723
     31 H8          1.8809   -6.2668   -6.8416 H         1 <0>         0.2030
     32 H9         -0.6552   -6.9418    0.4952 H         1 <0>         0.0806
     33 H10         0.8200   -6.7325    1.4876 H         1 <0>         0.0711
     34 H11        -2.1048   -6.7644    2.4140 H         1 <0>         0.0754
     35 H12        -0.7040   -7.6502    3.1051 H         1 <0>         0.0877
     36 H13        -1.4955   -5.2964    4.2263 H         1 <0>         0.0840
     37 H14         0.2539   -5.6439    4.0305 H         1 <0>         0.0922
     38 H15         0.7435   -2.7037    2.0634 H         1 <0>         0.0556
     39 H16         0.3175   -2.8842    3.7822 H         1 <0>         0.0630
     40 H17         3.1180   -2.6919    2.6530 H         1 <0>         0.0391
     41 H18         2.6921   -2.8725    4.3718 H         1 <0>         0.0423
     42 H19         3.7574   -4.0643    3.5889 H         1 <0>         0.0873
@<TRIPOS>BOND
     1    1    2 1
     2    1   25 1
     3    1   26 1
     4    1   27 1
     5    2    3 2
     6    2    4 am
     7    4    5 1
     8    4   28 1
     9    5   10 ar
    10    5    6 ar
    11    6    7 ar
    12    6   29 1
    13    7    8 ar
    14    7   16 1
    15    8    9 ar
    16    9   10 ar
    17    9   11 1
    18   11   15 1
    19   11   12 2
    20   12   13 1
    21   13   14 2
    22   13   30 1
    23   14   15 1
    24   14   31 1
    25   16   20 1
    26   16   17 1
    27   17   18 1
    28   17   32 1
    29   17   33 1
    30   18   19 1
    31   18   34 1
    32   18   35 1
    33   19   20 1
    34   19   36 1
    35   19   37 1
    36   20   21 1
    37   20   22 1
    38   22   23 1
    39   22   38 1
    40   22   39 1
    41   23   24 1
    42   24   40 1
    43   24   41 1
    44   24   42 1
