@<TRIPOS>MOLECULE
CHEMBL255951
   66    70     0     0     0
SMALL
USER_CHARGES

@<TRIPOS>ATOM
      1 C1          8.3276   -1.9632   -0.0229 C.3       1 <0>        -0.0787
      2 C2          7.2456   -3.0122   -0.0325 C.2       1 <0>         0.0208
      3 C3          7.4442   -4.3460   -0.0478 C.2       1 <0>        -0.2239
      4 C4          6.1740   -4.9523   -0.0521 C.2       1 <0>        -0.1090
      5 C5          5.2590   -3.9452   -0.0390 C.2       1 <0>         0.0085
      6 O1          5.9255   -2.7740   -0.0213 O.3       1 <0>        -0.1520
      7 C6          3.7924   -4.1072   -0.0379 C.ar      1 <0>         0.4618
      8 N1          3.2761   -5.3312   -0.0451 N.ar      1 <0>        -0.5033
      9 C7          1.9604   -5.5132   -0.0444 C.ar      1 <0>         0.4382
     10 C8          1.1213   -4.4006   -0.0358 C.ar      1 <0>        -0.2624
     11 C9          1.6977   -3.1348   -0.0284 C.ar      1 <0>         0.4512
     12 N2          3.0215   -3.0261   -0.0242 N.ar      1 <0>        -0.5464
     13 N3          0.8947   -1.9926   -0.0198 N.pl3     1 <0>        -0.3326
     14 C10         1.2507   -0.7669    0.4467 C.2       1 <0>         0.1170
     15 C11         0.1939    0.0593    0.2742 C.2       1 <0>        -0.2615
     16 C12        -0.8398   -0.6788   -0.3144 C.2       1 <0>         0.1011
     17 N4         -0.4198   -1.9040   -0.4962 N.2       1 <0>        -0.2847
     18 C13        -2.2022   -0.1499   -0.6819 C.3       1 <0>        -0.0759
     19 C14         2.5818   -0.3957    1.0479 C.3       1 <0>        -0.0887
     20 N5          1.4270   -6.7978   -0.0524 N.am      1 <0>        -0.6550
     21 C15         2.2422   -7.8653   -0.1639 C.2       1 <0>         0.5039
     22 O2          3.4451   -7.7122   -0.1643 O.2       1 <0>        -0.4463
     23 C16         1.6587   -9.2492   -0.2879 C.3       1 <0>        -0.0978
     24 C17         2.7741  -10.2567   -0.3974 C.ar      1 <0>        -0.0722
     25 C18         3.2747  -10.6014   -1.6390 C.ar      1 <0>        -0.1011
     26 C19         4.2978  -11.5255   -1.7394 C.ar      1 <0>        -0.1126
     27 C20         4.8207  -12.1045   -0.5983 C.ar      1 <0>        -0.0744
     28 C21         4.3208  -11.7591    0.6433 C.ar      1 <0>        -0.0951
     29 C22         3.3006  -10.8318    0.7441 C.ar      1 <0>        -0.1011
     30 C23         5.9355  -13.1127   -0.7079 C.3       1 <0>         0.0930
     31 N6          7.2296  -12.4197   -0.6527 N.3       1 <0>        -0.5307
     32 C24         7.4212  -11.5665   -1.8344 C.3       1 <0>         0.0144
     33 C25         8.7515  -10.8194   -1.7076 C.3       1 <0>         0.0636
     34 O3          9.8108  -11.7665   -1.5461 O.3       1 <0>        -0.3857
     35 C26         9.6566  -12.6137   -0.4042 C.3       1 <0>         0.0634
     36 C27         8.3355  -13.3789   -0.5179 C.3       1 <0>         0.0170
     37 H1          7.8730   -0.9726   -0.0058 H         1 <0>         0.0791
     38 H2          8.9509   -2.0922    0.8620 H         1 <0>         0.0910
     39 H3          8.9413   -2.0660   -0.9178 H         1 <0>         0.0909
     40 H4          8.3977   -4.8532   -0.0557 H         1 <0>         0.1568
     41 H5          5.9658   -6.0120   -0.0639 H         1 <0>         0.1659
     42 H6          0.0478   -4.5186   -0.0354 H         1 <0>         0.1610
     43 H7          0.1544    1.1044    0.5435 H         1 <0>         0.1592
     44 H8         -2.1808    0.2311   -1.7029 H         1 <0>         0.0832
     45 H9         -2.9355   -0.9532   -0.6092 H         1 <0>         0.0770
     46 H10        -2.4759    0.6547    0.0005 H         1 <0>         0.0840
     47 H11         3.2532   -0.0531    0.2605 H         1 <0>         0.0885
     48 H12         2.4411    0.4015    1.7778 H         1 <0>         0.0832
     49 H13         3.0138   -1.2670    1.5402 H         1 <0>         0.0785
     50 H14         0.4683   -6.9254    0.0222 H         1 <0>         0.4247
     51 H15         1.0554   -9.4695    0.5927 H         1 <0>         0.1091
     52 H16         1.0333   -9.3013   -1.1791 H         1 <0>         0.1092
     53 H17         2.8662  -10.1491   -2.5305 H         1 <0>         0.1198
     54 H18         4.6884  -11.7954   -2.7095 H         1 <0>         0.1188
     55 H19         4.7291  -12.2117    1.5349 H         1 <0>         0.1233
     56 H20         2.9125  -10.5592    1.7143 H         1 <0>         0.1206
     57 H21         5.8672  -13.8211    0.1177 H         1 <0>         0.0857
     58 H22         5.8499  -13.6477   -1.6537 H         1 <0>         0.0450
     59 H23         7.4354  -12.1853   -2.7317 H         1 <0>         0.0419
     60 H24         6.6047  -10.8474   -1.9004 H         1 <0>         0.0918
     61 H25         8.9248  -10.2294   -2.6075 H         1 <0>         0.0982
     62 H26         8.7174  -10.1601   -0.8403 H         1 <0>         0.0609
     63 H27        10.4846  -13.3213   -0.3615 H         1 <0>         0.0988
     64 H28         9.6489  -12.0065    0.5010 H         1 <0>         0.0604
     65 H29         8.1865  -13.9828    0.3772 H         1 <0>         0.0872
     66 H30         8.3643  -14.0267   -1.3941 H         1 <0>         0.0437
@<TRIPOS>BOND
     1    1    2 1
     2    1   37 1
     3    1   38 1
     4    1   39 1
     5    2    6 1
     6    2    3 2
     7    3    4 1
     8    3   40 1
     9    4    5 2
    10    4   41 1
    11    5    6 1
    12    5    7 1
    13    7   12 ar
    14    7    8 ar
    15    8    9 ar
    16    9   10 ar
    17    9   20 1
    18   10   11 ar
    19   10   42 1
    20   11   12 ar
    21   11   13 1
    22   13   17 1
    23   13   14 1
    24   14   15 2
    25   14   19 1
    26   15   16 1
    27   15   43 1
    28   16   17 2
    29   16   18 1
    30   18   44 1
    31   18   45 1
    32   18   46 1
    33   19   47 1
    34   19   48 1
    35   19   49 1
    36   20   21 am
    37   20   50 1
    38   21   22 2
    39   21   23 1
    40   23   24 1
    41   23   51 1
    42   23   52 1
    43   24   29 ar
    44   24   25 ar
    45   25   26 ar
    46   25   53 1
    47   26   27 ar
    48   26   54 1
    49   27   28 ar
    50   27   30 1
    51   28   29 ar
    52   28   55 1
    53   29   56 1
    54   30   31 1
    55   30   57 1
    56   30   58 1
    57   31   36 1
    58   31   32 1
    59   32   33 1
    60   32   59 1
    61   32   60 1
    62   33   34 1
    63   33   61 1
    64   33   62 1
    65   34   35 1
    66   35   36 1
    67   35   63 1
    68   35   64 1
    69   36   65 1
    70   36   66 1
