@<TRIPOS>MOLECULE
CHEMBL259416
   34    37     0     0     0
SMALL
USER_CHARGES

@<TRIPOS>ATOM
      1 C1         -0.0167    1.3776    0.0096 C.ar      1 <0>        -0.1772
      2 C2          1.1849    2.0698    0.0019 C.ar      1 <0>        -0.0480
      3 C3          2.3651    1.3426   -0.0133 C.ar      1 <0>        -0.1748
      4 C4          2.3054   -0.0383   -0.0202 C.ar      1 <0>         0.1285
      5 N1          1.1443   -0.6632   -0.0129 N.ar      1 <0>        -0.4863
      6 C5          0.0021   -0.0041    0.0020 C.ar      1 <0>         0.1088
      7 C6          3.6964    2.0488   -0.0227 C.3       1 <0>         0.1896
      8 N2          4.1412    2.2707    1.3554 N.pl3     1 <0>        -0.3801
      9 C7          3.8617    3.3655    2.1193 C.ar      1 <0>         0.3956
     10 C8          4.4857    3.1547    3.3655 C.ar      1 <0>        -0.3146
     11 C9          5.1340    1.9041    3.2969 C.2       1 <0>         0.1203
     12 N3          4.9218    1.3924    2.1176 N.2       1 <0>        -0.2453
     13 C10         4.3535    4.1507    4.3589 C.ar      1 <0>         0.3849
     14 N4          3.6454    5.2421    4.0712 N.ar      1 <0>        -0.5701
     15 C11         3.0764    5.3954    2.8832 C.ar      1 <0>         0.6191
     16 N5          3.1748    4.4886    1.9250 N.ar      1 <0>        -0.5932
     17 N6          2.3516    6.5486    2.6362 N.pl3     1 <0>        -0.8110
     18 C12         4.9823    3.9863    5.6798 C.2       1 <0>        -0.0036
     19 C13         5.5145    4.9827    6.4423 C.2       1 <0>        -0.1286
     20 C14         6.0018    4.3784    7.6151 C.2       1 <0>        -0.2206
     21 C15         5.7474    3.0570    7.5151 C.2       1 <0>        -0.0078
     22 O1          5.1270    2.8250    6.3486 O.3       1 <0>        -0.1611
     23 H1         -0.9552    1.9117    0.0259 H         1 <0>         0.1378
     24 H2          1.2009    3.1496    0.0072 H         1 <0>         0.1385
     25 H3          3.2203   -0.6121   -0.0320 H         1 <0>         0.1583
     26 H4         -0.9294   -0.5505    0.0083 H         1 <0>         0.1584
     27 H5          4.4293    1.4355   -0.5468 H         1 <0>         0.1108
     28 H6          3.5953    3.0079   -0.5308 H         1 <0>         0.1082
     29 H7          5.7066    1.4460    4.0898 H         1 <0>         0.1985
     30 H8          2.2676    7.2256    3.3257 H         1 <0>         0.4193
     31 H9          1.9277    6.6796    1.7736 H         1 <0>         0.4176
     32 H10         5.5548    6.0329    6.1938 H         1 <0>         0.1579
     33 H11         6.4879    4.8777    8.4402 H         1 <0>         0.1573
     34 H12         5.9978    2.3102    8.2541 H         1 <0>         0.2129
@<TRIPOS>BOND
     1    1    6 ar
     2    1    2 ar
     3    1   23 1
     4    2    3 ar
     5    2   24 1
     6    3    4 ar
     7    3    7 1
     8    4    5 ar
     9    4   25 1
    10    5    6 ar
    11    6   26 1
    12    7    8 1
    13    7   27 1
    14    7   28 1
    15    8   12 1
    16    8    9 1
    17    9   16 ar
    18    9   10 ar
    19   10   11 1
    20   10   13 ar
    21   11   12 2
    22   11   29 1
    23   13   14 ar
    24   13   18 1
    25   14   15 ar
    26   15   16 ar
    27   15   17 1
    28   17   30 1
    29   17   31 1
    30   18   22 1
    31   18   19 2
    32   19   20 1
    33   19   32 1
    34   20   21 2
    35   20   33 1
    36   21   22 1
    37   21   34 1
