@<TRIPOS>MOLECULE
CHEMBL222430
   61    67     0     0     0
SMALL
USER_CHARGES

@<TRIPOS>ATOM
      1 C1         -0.0162    1.3433    0.0094 C.2       1 <0>        -0.2197
      2 C2          1.3252    1.7744   -0.0011 C.2       1 <0>        -0.1242
      3 C3          2.0963    0.6547   -0.0144 C.2       1 <0>         0.0317
      4 O1          1.2798   -0.4167   -0.0124 O.3       1 <0>        -0.1587
      5 C4          0.0021   -0.0041    0.0020 C.2       1 <0>        -0.0008
      6 C5          3.5735    0.6192   -0.0292 C.2       1 <0>         0.3321
      7 N1          4.3782    1.6975   -0.0257 N.2       1 <0>        -0.4763
      8 C6          5.6284    1.3133   -0.0438 C.2       1 <0>         0.4994
      9 N2          6.7827    2.0136   -0.0426 N.2       1 <0>        -0.5248
     10 C7          7.9149    1.3544   -0.2245 C.2       1 <0>         0.6640
     11 N3          7.9251    0.0030   -0.4737 N.pl3     1 <0>        -0.7079
     12 C8          6.8335   -0.7612   -0.0614 C.2       1 <0>         0.6315
     13 N4          5.6350   -0.0666   -0.0535 N.pl3     1 <0>        -0.3830
     14 N5          4.3125   -0.4776   -0.0421 N.2       1 <0>        -0.2428
     15 N6          6.9320   -2.0133    0.2840 N.2       1 <0>        -0.6520
     16 N7          9.1029    2.0335   -0.1638 N.pl3     1 <0>        -0.5993
     17 C9         10.3866    1.3423   -0.3661 C.3       1 <0>         0.0898
     18 C10        11.3005    1.6893    0.8113 C.3       1 <0>        -0.0206
     19 N8         11.4311    3.1501    0.9330 N.4       1 <0>        -0.3855
     20 C11        12.3915    3.4256    2.0122 C.3       1 <0>         0.0024
     21 C12        12.6152    4.9311    2.1496 C.3       1 <0>        -0.1138
     22 H1         13.3336    5.1226    2.9467 H         1 <0>         0.1345
     23 C13        11.2787    5.5987    2.4911 C.3       1 <0>        -0.1287
     24 C14        10.2734    5.2712    1.3860 C.3       1 <0>        -0.1445
     25 C15        10.1305    3.7519    1.2449 C.3       1 <0>         0.0159
     26 H2          9.7485    3.3332    2.1760 H         1 <0>         0.1483
     27 C16         9.1400    3.4780    0.0994 C.3       1 <0>         0.1082
     28 C17        13.1504    5.4926    0.8309 C.3       1 <0>         0.0562
     29 O2         13.4684    6.8759    0.9963 O.3       1 <0>        -0.2870
     30 C18        13.9573    7.5268   -0.0833 C.ar      1 <0>         0.4717
     31 C19        14.3053    8.8966   -0.0106 C.ar      1 <0>        -0.3281
     32 C20        14.2850    9.8724    0.9636 C.2       1 <0>         0.1645
     33 N9         14.7483   11.0044    0.4194 N.pl3     1 <0>        -0.4028
     34 N10        15.0804   10.7881   -0.9232 N.2       1 <0>        -0.2731
     35 H3         14.8400   11.8497    0.8864 H         1 <0>         0.4584
     36 C21        14.8317    9.5337   -1.2306 C.ar      1 <0>         0.3116
     37 N11        14.9484    8.7735   -2.3365 N.ar      1 <0>        -0.5110
     38 C22        14.6011    7.5120   -2.3111 C.ar      1 <0>         0.3804
     39 N12        14.1287    6.8992   -1.2356 N.ar      1 <0>        -0.6232
     40 H4         -0.8931    1.9736    0.0252 H         1 <0>         0.1611
     41 H5          1.6735    2.7967    0.0011 H         1 <0>         0.1629
     42 H6         -0.8667   -0.6456    0.0069 H         1 <0>         0.2153
     43 H7          7.7947   -2.4563    0.2614 H         1 <0>         0.3683
     44 H8         10.2237    0.2651   -0.4012 H         1 <0>         0.1242
     45 H9         10.8427    1.6772   -1.2978 H         1 <0>         0.1143
     46 H10        10.8752    1.2862    1.7304 H         1 <0>         0.1392
     47 H11        12.2846    1.2505    0.6469 H         1 <0>         0.1538
     48 H12        12.0025    3.0313    2.9510 H         1 <0>         0.1415
     49 H13        13.3399    2.9391    1.7844 H         1 <0>         0.1397
     50 H14        10.9121    5.2172    3.4440 H         1 <0>         0.0906
     51 H15        11.4145    6.6783    2.5540 H         1 <0>         0.1051
     52 H16         9.3052    5.7042    1.6374 H         1 <0>         0.1229
     53 H17        10.6225    5.6913    0.4427 H         1 <0>         0.0928
     54 H18         9.4634    4.0037   -0.7990 H         1 <0>         0.1048
     55 H19         8.1461    3.8217    0.3858 H         1 <0>         0.1535
     56 H20        14.0476    4.9458    0.5406 H         1 <0>         0.0870
     57 H21        12.3921    5.3844    0.0554 H         1 <0>         0.0681
     58 H22        13.9537    9.7461    1.9838 H         1 <0>         0.2040
     59 H23        14.7093    6.9362   -3.2183 H         1 <0>         0.2069
     60 H24         8.6760   -0.4109   -0.9272 H         1 <0>         0.4283
     61 H25        11.7789    3.5306    0.0656 H         1 <0>         0.4228
@<TRIPOS>BOND
     1    1    5 2
     2    1    2 1
     3    1   40 1
     4    2    3 2
     5    2   41 1
     6    3    4 1
     7    3    6 1
     8    4    5 1
     9    5   42 1
    10    6   14 2
    11    6    7 1
    12    7    8 2
    13    8   13 1
    14    8    9 1
    15    9   10 2
    16   10   11 1
    17   10   16 1
    18   11   12 1
    19   11   60 1
    20   12   13 1
    21   12   15 2
    22   13   14 1
    23   15   43 1
    24   16   27 1
    25   16   17 1
    26   17   18 1
    27   17   44 1
    28   17   45 1
    29   18   19 1
    30   18   46 1
    31   18   47 1
    32   19   25 1
    33   19   20 1
    34   19   61 1
    35   20   21 1
    36   20   48 1
    37   20   49 1
    38   21   22 1
    39   21   23 1
    40   21   28 1
    41   23   24 1
    42   23   50 1
    43   23   51 1
    44   24   25 1
    45   24   52 1
    46   24   53 1
    47   25   26 1
    48   25   27 1
    49   27   54 1
    50   27   55 1
    51   28   29 1
    52   28   56 1
    53   28   57 1
    54   29   30 1
    55   30   39 ar
    56   30   31 ar
    57   31   36 ar
    58   31   32 2
    59   32   58 1
    60   32   33 1
    61   33   35 1
    62   33   34 1
    63   34   36 2
    64   36   37 ar
    65   37   38 ar
    66   38   39 ar
    67   38   59 1
