@<TRIPOS>MOLECULE
CHEMBL317580
   53    58     0     0     0
SMALL
USER_CHARGES

@<TRIPOS>ATOM
      1 C1          0.0335    1.4637    0.0599 C.ar      1 <0>        -0.1111
      2 C2          0.0197    0.0839   -0.0224 C.ar      1 <0>        -0.1138
      3 C3          1.2098   -0.6186   -0.0541 C.ar      1 <0>        -0.1085
      4 C4          2.4137    0.0588   -0.0040 C.ar      1 <0>        -0.0903
      5 C5          2.4276    1.4387    0.0773 C.ar      1 <0>        -0.1050
      6 C6          1.2375    2.1411    0.1104 C.ar      1 <0>        -0.1145
      7 C7          3.7112   -0.7071   -0.0376 C.3       1 <0>        -0.0149
      8 C8          3.8699   -1.4828    1.2447 C.ar      1 <0>        -0.0754
      9 C9          3.0119   -2.5282    1.5308 C.ar      1 <0>        -0.0799
     10 C10         3.1575   -3.2398    2.7070 C.ar      1 <0>        -0.1206
     11 C11         4.1614   -2.9062    3.5968 C.ar      1 <0>        -0.1117
     12 C12         5.0200   -1.8613    3.3103 C.ar      1 <0>        -0.1222
     13 C13         4.8770   -1.1526    2.1321 C.ar      1 <0>        -0.1048
     14 C14         3.7012   -1.6613   -1.2040 C.2       1 <0>         0.5200
     15 O1          3.8120   -2.8536   -1.0129 O.2       1 <0>        -0.4326
     16 N1          3.5691   -1.1895   -2.4595 N.am      1 <0>        -0.6418
     17 C15         3.5599   -2.0642   -3.5287 C.2       1 <0>         0.6242
     18 N2          3.6759   -3.3433   -3.2905 N.2       1 <0>        -0.4665
     19 C16         3.6750   -4.2623   -4.2861 C.ar      1 <0>         0.1655
     20 C17         3.7994   -5.6282   -4.0179 C.ar      1 <0>        -0.0800
     21 C18         3.7941   -6.5271   -5.0466 C.ar      1 <0>        -0.0640
     22 C19         3.6664   -6.1043   -6.3643 C.ar      1 <0>        -0.0465
     23 C20         3.5419   -4.7634   -6.6604 C.ar      1 <0>        -0.0387
     24 C21         3.5449   -3.8304   -5.6258 C.ar      1 <0>        -0.0938
     25 C22         3.4162   -2.3899   -5.8747 C.2       1 <0>         0.3563
     26 N3          3.4243   -1.5540   -4.7896 N.pl3     1 <0>        -0.3607
     27 N4          3.2815   -0.2555   -5.2970 N.2       1 <0>        -0.2875
     28 C23         3.1917   -0.3615   -6.6096 C.2       1 <0>         0.3466
     29 N5          3.2821   -1.6521   -6.9546 N.2       1 <0>        -0.4982
     30 C24         3.0298    0.7667   -7.5504 C.2       1 <0>         0.0392
     31 C25         2.9545    2.0817   -7.2137 C.2       1 <0>        -0.1337
     32 C26         2.8045    2.8006   -8.4162 C.2       1 <0>        -0.2193
     33 C27         2.7956    1.8983   -9.4171 C.2       1 <0>        -0.0017
     34 O2          2.9370    0.6711   -8.8908 O.3       1 <0>        -0.1525
     35 Cl1         3.6640   -7.2735   -7.6476 Cl        1 <0>        -0.0497
     36 H1         -0.8963    2.0129    0.0801 H         1 <0>         0.1251
     37 H2         -0.9210   -0.4453   -0.0615 H         1 <0>         0.1250
     38 H3          1.1989   -1.6967   -0.1176 H         1 <0>         0.1217
     39 H4          3.3682    1.9678    0.1171 H         1 <0>         0.1274
     40 H5          1.2483    3.2191    0.1743 H         1 <0>         0.1272
     41 H6          4.5420   -0.0099   -0.1456 H         1 <0>         0.1201
     42 H7          2.2276   -2.7889    0.8356 H         1 <0>         0.1205
     43 H8          2.4868   -4.0561    2.9308 H         1 <0>         0.1231
     44 H9          4.2747   -3.4616    4.5161 H         1 <0>         0.1227
     45 H10         5.8040   -1.6005    4.0057 H         1 <0>         0.1241
     46 H11         5.5501   -0.3386    1.9065 H         1 <0>         0.1225
     47 H12         3.4804   -0.2357   -2.6124 H         1 <0>         0.4302
     48 H13         3.8999   -5.9726   -2.9992 H         1 <0>         0.1573
     49 H14         3.8910   -7.5813   -4.8328 H         1 <0>         0.1508
     50 H15         3.4432   -4.4390   -7.6858 H         1 <0>         0.1542
     51 H16         3.0005    2.4953   -6.2171 H         1 <0>         0.1606
     52 H17         2.7134    3.8720   -8.5167 H         1 <0>         0.1604
     53 H18         2.6952    2.1249  -10.4682 H         1 <0>         0.2150
@<TRIPOS>BOND
     1    1    6 ar
     2    1    2 ar
     3    1   36 1
     4    2    3 ar
     5    2   37 1
     6    3    4 ar
     7    3   38 1
     8    4    5 ar
     9    4    7 1
    10    5    6 ar
    11    5   39 1
    12    6   40 1
    13    7    8 1
    14    7   14 1
    15    7   41 1
    16    8   13 ar
    17    8    9 ar
    18    9   10 ar
    19    9   42 1
    20   10   11 ar
    21   10   43 1
    22   11   12 ar
    23   11   44 1
    24   12   13 ar
    25   12   45 1
    26   13   46 1
    27   14   15 2
    28   14   16 am
    29   16   17 1
    30   16   47 1
    31   17   26 1
    32   17   18 2
    33   18   19 1
    34   19   24 ar
    35   19   20 ar
    36   20   21 ar
    37   20   48 1
    38   21   22 ar
    39   21   49 1
    40   22   23 ar
    41   22   35 1
    42   23   24 ar
    43   23   50 1
    44   24   25 1
    45   25   29 2
    46   25   26 1
    47   26   27 1
    48   27   28 2
    49   28   29 1
    50   28   30 1
    51   30   34 1
    52   30   31 2
    53   31   32 1
    54   31   51 1
    55   32   33 2
    56   32   52 1
    57   33   34 1
    58   33   53 1
