@<TRIPOS>MOLECULE
CHEMBL411034
   39    42     0     0     0
SMALL
USER_CHARGES

@<TRIPOS>ATOM
      1 C1         -0.0167    1.3780    0.0096 C.ar      1 <0>        -0.1153
      2 C2          1.1709    2.0861    0.0021 C.ar      1 <0>        -0.0934
      3 C3          2.3773    1.4123   -0.0135 C.ar      1 <0>        -0.1113
      4 C4          2.3967    0.0287   -0.0210 C.ar      1 <0>        -0.0202
      5 C5          1.2083   -0.6792   -0.0130 C.ar      1 <0>        -0.1096
      6 C6          0.0021   -0.0041    0.0020 C.ar      1 <0>        -0.0836
      7 C7          1.2286   -2.1860   -0.0218 C.3       1 <0>         0.1746
      8 N1          1.4887   -2.6787    1.3331 N.am      1 <0>        -0.7181
      9 C8          1.5517   -4.0045    1.5675 C.2       1 <0>         0.7108
     10 O1          1.3928   -4.7910    0.6551 O.2       1 <0>        -0.5074
     11 N2          1.7910   -4.4578    2.8140 N.am      1 <0>        -0.4700
     12 C9          1.9830   -3.6925    3.9348 C.2       1 <0>         0.2535
     13 N3          2.1880   -4.4594    4.9646 N.2       1 <0>        -0.4177
     14 C10         2.1426   -5.7581    4.5821 C.ar      1 <0>        -0.0932
     15 C11         1.8824   -5.7777    3.2008 C.ar      1 <0>         0.3668
     16 N4          1.7832   -6.9439    2.5768 N.ar      1 <0>        -0.5471
     17 C12         1.9238   -8.0810    3.2416 C.ar      1 <0>         0.6027
     18 N5          2.1664   -8.1151    4.5434 N.ar      1 <0>        -0.5435
     19 C13         2.2902   -6.9904    5.2500 C.ar      1 <0>         0.3701
     20 C14         2.5588   -7.0356    6.6975 C.2       1 <0>         0.0051
     21 C15         2.0993   -7.9780    7.5673 C.2       1 <0>        -0.1332
     22 C16         2.5959   -7.6330    8.8378 C.2       1 <0>        -0.2233
     23 C17         3.3267   -6.5094    8.6855 C.2       1 <0>        -0.0070
     24 O2          3.3068   -6.1550    7.3915 O.3       1 <0>        -0.1488
     25 N6          1.8127   -9.2768    2.5512 N.pl3     1 <0>        -0.8078
     26 Cl1         3.9119   -0.8184   -0.0411 Cl        1 <0>        -0.0578
     27 H1         -0.9592    1.9049    0.0259 H         1 <0>         0.1343
     28 H2          1.1556    3.1659    0.0080 H         1 <0>         0.1362
     29 H3          3.3048    1.9655   -0.0201 H         1 <0>         0.1378
     30 H4         -0.9258   -0.5566    0.0079 H         1 <0>         0.1366
     31 H5          0.2643   -2.5603   -0.3656 H         1 <0>         0.0892
     32 H6          2.0139   -2.5349   -0.6923 H         1 <0>         0.0900
     33 H7          1.6155   -2.0509    2.0615 H         1 <0>         0.4032
     34 H8          1.9668   -2.6129    3.9589 H         1 <0>         0.2307
     35 H9          1.4744   -8.8258    7.3281 H         1 <0>         0.1575
     36 H10         2.4240   -8.1668    9.7608 H         1 <0>         0.1565
     37 H11         3.8452   -5.9842    9.4740 H         1 <0>         0.2112
     38 H12         1.6349   -9.2716    1.5976 H         1 <0>         0.4205
     39 H13         1.9126  -10.1194    3.0213 H         1 <0>         0.4206
@<TRIPOS>BOND
     1    1    6 ar
     2    1    2 ar
     3    1   27 1
     4    2    3 ar
     5    2   28 1
     6    3    4 ar
     7    3   29 1
     8    4    5 ar
     9    4   26 1
    10    5    6 ar
    11    5    7 1
    12    6   30 1
    13    7    8 1
    14    7   31 1
    15    7   32 1
    16    8    9 am
    17    8   33 1
    18    9   10 2
    19    9   11 am
    20   11   15 1
    21   11   12 1
    22   12   13 2
    23   12   34 1
    24   13   14 1
    25   14   19 ar
    26   14   15 ar
    27   15   16 ar
    28   16   17 ar
    29   17   18 ar
    30   17   25 1
    31   18   19 ar
    32   19   20 1
    33   20   24 1
    34   20   21 2
    35   21   22 1
    36   21   35 1
    37   22   23 2
    38   22   36 1
    39   23   24 1
    40   23   37 1
    41   25   38 1
    42   25   39 1
