@<TRIPOS>MOLECULE
CHEMBL92906
   49    50     0     0     0
SMALL
USER_CHARGES

@<TRIPOS>ATOM
      1 C1         -0.0187    1.5258    0.0104 C.3       1 <0>        -0.1476
      2 C2          0.0021   -0.0041    0.0020 C.3       1 <0>        -0.1374
      3 C3          0.7182   -0.4975   -1.2568 C.3       1 <0>         0.1187
      4 N1          0.7381   -1.9623   -1.2648 N.am      1 <0>        -0.5080
      5 C4         -0.2978   -2.6649   -1.8590 C.2       1 <0>         0.3262
      6 C5         -0.2556   -4.0535   -1.8540 C.2       1 <0>        -0.1530
      7 C6          0.8381   -4.7062   -1.2456 C.2       1 <0>         0.5933
      8 O1          0.8979   -5.9226   -1.2287 O.2       1 <0>        -0.5110
      9 N2          1.8167   -3.9668   -0.6832 N.am      1 <0>        -0.5486
     10 C7          1.7657   -2.6237   -0.6997 C.2       1 <0>         0.7071
     11 O2          2.6683   -1.9900   -0.1875 O.2       1 <0>        -0.5281
     12 C8          2.9547   -4.6379   -0.0500 C.3       1 <0>         0.1136
     13 C9          4.0598   -4.8545   -1.0857 C.3       1 <0>        -0.1379
     14 C10         5.2482   -5.5554   -0.4244 C.3       1 <0>        -0.1475
     15 N3         -1.3974   -4.4770   -2.5042 N.pl3     1 <0>        -0.5133
     16 C11        -2.0744   -3.3715   -2.8713 C.2       1 <0>         0.2972
     17 N4         -1.4199   -2.3052   -2.4875 N.2       1 <0>        -0.4884
     18 H1         -1.6621   -5.3960   -2.6660 H         1 <0>         0.4367
     19 C12        -3.3868   -3.3639   -3.6120 C.3       1 <0>        -0.0381
     20 C13        -4.4129   -2.5480   -2.8231 C.3       1 <0>        -0.1251
     21 C14        -5.7454   -2.5403   -3.5751 C.3       1 <0>         0.1194
     22 N5         -6.7279   -1.7590   -2.8197 N.am      1 <0>        -0.7270
     23 C15        -7.9812   -1.6135   -3.2935 C.2       1 <0>         0.5105
     24 O3         -8.2957   -2.1293   -4.3451 O.2       1 <0>        -0.5101
     25 C16        -8.9919   -0.8098   -2.5165 C.3       1 <0>        -0.1186
     26 Br1       -10.7040   -0.7999   -3.4827 Br        1 <0>        -0.0986
     27 H2          1.0039    1.9031    0.0027 H         1 <0>         0.0592
     28 H3         -0.5459    1.8868   -0.8726 H         1 <0>         0.0588
     29 H4         -0.5289    1.8773    0.9072 H         1 <0>         0.0608
     30 H5          0.5293   -0.3651    0.8851 H         1 <0>         0.0678
     31 H6         -1.0205   -0.3814    0.0098 H         1 <0>         0.0673
     32 H7          0.1910   -0.1364   -2.1398 H         1 <0>         0.0987
     33 H8          1.7408   -0.1202   -1.2645 H         1 <0>         0.1003
     34 H9          3.3348   -4.0193    0.7630 H         1 <0>         0.1034
     35 H10         2.6339   -5.6014    0.3460 H         1 <0>         0.1016
     36 H11         3.6796   -5.4731   -1.8987 H         1 <0>         0.0672
     37 H12         4.3806   -3.8910   -1.4817 H         1 <0>         0.0694
     38 H13         5.6284   -4.9368    0.3886 H         1 <0>         0.0600
     39 H14         4.9274   -6.5189   -0.0284 H         1 <0>         0.0590
     40 H15         6.0355   -5.7097   -1.1623 H         1 <0>         0.0617
     41 H16        -3.2461   -2.9168   -4.5961 H         1 <0>         0.1104
     42 H17        -3.7458   -4.3868   -3.7256 H         1 <0>         0.0957
     43 H18        -4.5537   -2.9950   -1.8390 H         1 <0>         0.0749
     44 H19        -4.0539   -1.5251   -2.7095 H         1 <0>         0.0899
     45 H20        -5.6046   -2.0932   -4.5592 H         1 <0>         0.0758
     46 H21        -6.1044   -3.5632   -3.6887 H         1 <0>         0.0729
     47 H22        -6.4764   -1.3464   -1.9786 H         1 <0>         0.4040
     48 H23        -9.1326   -1.2569   -1.5324 H         1 <0>         0.1281
     49 H24        -8.6329    0.2131   -2.4029 H         1 <0>         0.1287
@<TRIPOS>BOND
     1    1    2 1
     2    1   27 1
     3    1   28 1
     4    1   29 1
     5    2    3 1
     6    2   30 1
     7    2   31 1
     8    3   32 1
     9    3   33 1
    10    3    4 1
    11    4    5 1
    12    4   10 am
    13    5   17 1
    14    5    6 2
    15    6    7 1
    16    6   15 1
    17    7    9 am
    18    7    8 2
    19    9   10 am
    20    9   12 1
    21   10   11 2
    22   12   13 1
    23   12   34 1
    24   12   35 1
    25   13   14 1
    26   13   36 1
    27   13   37 1
    28   14   38 1
    29   14   39 1
    30   14   40 1
    31   15   18 1
    32   15   16 1
    33   16   19 1
    34   16   17 2
    35   19   20 1
    36   19   41 1
    37   19   42 1
    38   20   21 1
    39   20   43 1
    40   20   44 1
    41   21   22 1
    42   21   45 1
    43   21   46 1
    44   22   23 am
    45   22   47 1
    46   23   24 2
    47   23   25 1
    48   25   26 1
    49   25   48 1
    50   25   49 1
