@<TRIPOS>MOLECULE
CHEMBL315562
   37    41     0     0     0
SMALL
USER_CHARGES

@<TRIPOS>ATOM
      1 C1         -0.0162    1.3433    0.0094 C.2       1 <0>        -0.2196
      2 C2          1.3253    1.7743   -0.0011 C.2       1 <0>        -0.1339
      3 C3          2.0962    0.6548   -0.0144 C.2       1 <0>         0.0400
      4 O1          1.2798   -0.4166   -0.0124 O.3       1 <0>        -0.1522
      5 C4          0.0021   -0.0041    0.0020 C.2       1 <0>        -0.0020
      6 C5          3.5737    0.6192   -0.0292 C.2       1 <0>         0.3414
      7 N1          4.3230   -0.4907   -0.0476 N.2       1 <0>        -0.4832
      8 C6          5.5965   -0.1648   -0.0567 C.2       1 <0>         0.4052
      9 C7          6.8498   -0.9267   -0.0770 C.2       1 <0>        -0.0233
     10 C8          8.0722   -0.1962   -0.0819 C.2       1 <0>         0.2641
     11 N2          8.0333    1.1588   -0.0685 N.2       1 <0>        -0.5193
     12 C9          6.9053    1.8184   -0.0511 C.2       1 <0>         0.6773
     13 N3          5.6826    1.2018   -0.0438 N.pl3     1 <0>        -0.3657
     14 N4          4.3636    1.6758   -0.0320 N.2       1 <0>        -0.2725
     15 N5          6.9481    3.1933   -0.0378 N.pl3     1 <0>        -0.8027
     16 N6          9.0225   -1.1099   -0.1000 N.2       1 <0>        -0.2590
     17 N7          8.4770   -2.2767   -0.1059 N.pl3     1 <0>        -0.1123
     18 N8          7.1909   -2.1968   -0.0926 N.2       1 <0>        -0.2009
     19 C10         9.2247   -3.5363   -0.1258 C.3       1 <0>         0.1827
     20 C11         9.4949   -3.9825    1.2881 C.ar      1 <0>        -0.1469
     21 C12        10.6457   -3.5710    1.9342 C.ar      1 <0>        -0.0540
     22 C13        10.8944   -3.9791    3.2309 C.ar      1 <0>        -0.1590
     23 C14         9.9903   -4.8004    3.8830 C.ar      1 <0>         0.1204
     24 C15         8.8381   -5.2119    3.2349 C.ar      1 <0>        -0.1588
     25 C16         8.5890   -4.7982    1.9400 C.ar      1 <0>        -0.0553
     26 F1         10.2326   -5.2004    5.1505 F         1 <0>        -0.1339
     27 H1         -0.8931    1.9735    0.0252 H         1 <0>         0.1604
     28 H2          1.6736    2.7966    0.0008 H         1 <0>         0.1614
     29 H3         -0.8667   -0.6456    0.0069 H         1 <0>         0.2148
     30 H4          7.8028    3.6520   -0.0415 H         1 <0>         0.4320
     31 H5          6.1236    3.7042   -0.0249 H         1 <0>         0.4254
     32 H6          8.6399   -4.2979   -0.6416 H         1 <0>         0.1306
     33 H7         10.1704   -3.3893   -0.6474 H         1 <0>         0.1315
     34 H8         11.3509   -2.9306    1.4252 H         1 <0>         0.1417
     35 H9         11.7937   -3.6578    3.7353 H         1 <0>         0.1421
     36 H10         8.1323   -5.8528    3.7424 H         1 <0>         0.1421
     37 H11         7.6881   -5.1154    1.4358 H         1 <0>         0.1414
@<TRIPOS>BOND
     1    1    5 2
     2    1    2 1
     3    1   27 1
     4    2    3 2
     5    2   28 1
     6    3    4 1
     7    3    6 1
     8    4    5 1
     9    5   29 1
    10    6   14 2
    11    6    7 1
    12    7    8 2
    13    8   13 1
    14    8    9 1
    15    9   18 2
    16    9   10 1
    17   10   11 1
    18   10   16 2
    19   11   12 2
    20   12   13 1
    21   12   15 1
    22   13   14 1
    23   15   30 1
    24   15   31 1
    25   16   17 1
    26   17   18 1
    27   17   19 1
    28   19   20 1
    29   19   32 1
    30   19   33 1
    31   20   25 ar
    32   20   21 ar
    33   21   22 ar
    34   21   34 1
    35   22   23 ar
    36   22   35 1
    37   23   24 ar
    38   23   26 1
    39   24   25 ar
    40   24   36 1
    41   25   37 1
