@<TRIPOS>MOLECULE
CHEMBL49925
   48    51     0     0     0
SMALL
USER_CHARGES

@<TRIPOS>ATOM
      1 C1         -0.4031    1.4267    0.0572 C.3       1 <0>         0.0659
      2 N1         -0.1700   -0.0192    0.0230 N.pl3     1 <0>        -0.4630
      3 C2         -0.1955   -0.8214   -1.0909 C.ar      1 <0>         0.3114
      4 C3          0.0828   -2.1262   -0.6409 C.ar      1 <0>        -0.0980
      5 C4          0.1197   -3.1658   -1.5903 C.ar      1 <0>         0.5180
      6 N2         -0.1087   -2.8712   -2.8634 N.ar      1 <0>        -0.5721
      7 C5         -0.3679   -1.6234   -3.2445 C.ar      1 <0>         0.5006
      8 N3         -0.4120   -0.6155   -2.3834 N.ar      1 <0>        -0.5367
      9 C6         -0.6074   -1.3593   -4.6314 C.1       1 <0>        -0.1030
     10 C7         -0.8037   -1.1428   -5.7684 C.1       1 <0>        -0.1080
     11 C8         -1.0498   -0.8713   -7.1941 C.3       1 <0>         0.2481
     12 C9          0.1797   -1.2757   -8.0099 C.3       1 <0>        -0.1396
     13 C10         1.3919   -0.4696   -7.5392 C.3       1 <0>        -0.1212
     14 C11         1.1187    1.0231   -7.7343 C.3       1 <0>        -0.1227
     15 C12        -0.1108    1.4275   -6.9184 C.3       1 <0>        -0.1214
     16 C13        -1.3230    0.6214   -7.3892 C.3       1 <0>        -0.1023
     17 O1         -2.1820   -1.6243   -7.6338 O.3       1 <0>        -0.5446
     18 N4          0.3889   -4.4669   -1.2033 N.pl3     1 <0>        -0.8117
     19 N5          0.2612   -2.0618    0.6967 N.2       1 <0>        -0.4386
     20 C14         0.1199   -0.8215    1.0972 C.2       1 <0>         0.3114
     21 C15         0.2499   -0.3581    2.4956 C.ar      1 <0>        -0.0227
     22 C16         0.1596   -1.2730    3.5473 C.ar      1 <0>        -0.0410
     23 C17         0.2812   -0.8425    4.8534 C.ar      1 <0>        -0.1140
     24 C18         0.4926    0.4937    5.1299 C.ar      1 <0>        -0.0530
     25 C19         0.5849    1.4195    4.0878 C.ar      1 <0>        -0.0208
     26 C20         0.4683    0.9905    2.7665 C.ar      1 <0>        -0.0676
     27 C21         0.8043    2.8050    4.3758 C.1       1 <0>         0.2473
     28 N6          0.9783    3.9041    4.6044 N.1       1 <0>        -0.4015
     29 H1          0.5526    1.9497    0.0230 H         1 <0>         0.0853
     30 H2         -1.0074    1.7177   -0.8020 H         1 <0>         0.1008
     31 H3         -0.9280    1.6885    0.9759 H         1 <0>         0.0966
     32 H4          0.3743   -2.3392   -7.8709 H         1 <0>         0.0721
     33 H5         -0.0026   -1.0747   -9.0656 H         1 <0>         0.0858
     34 H6          1.5742   -0.6706   -6.4835 H         1 <0>         0.0644
     35 H7          2.2678   -0.7577   -8.1204 H         1 <0>         0.0698
     36 H8          1.9823    1.5974   -7.3989 H         1 <0>         0.0658
     37 H9          0.9364    1.2241   -8.7900 H         1 <0>         0.0667
     38 H10         0.0715    1.2265   -5.8628 H         1 <0>         0.0674
     39 H11        -0.3054    2.4909   -7.0575 H         1 <0>         0.0729
     40 H12        -1.5053    0.8224   -8.4449 H         1 <0>         0.0838
     41 H13        -2.1989    0.9095   -6.8080 H         1 <0>         0.0757
     42 H14        -2.0789   -2.5811   -7.5392 H         1 <0>         0.3840
     43 H15         0.5547   -4.6708   -0.2696 H         1 <0>         0.4216
     44 H16         0.4118   -5.1751   -1.8658 H         1 <0>         0.4132
     45 H17        -0.0060   -2.3195    3.3381 H         1 <0>         0.1470
     46 H18         0.2102   -1.5542    5.6627 H         1 <0>         0.1459
     47 H19         0.5865    0.8239    6.1539 H         1 <0>         0.1409
     48 H20         0.5434    1.7012    1.9567 H         1 <0>         0.1413
@<TRIPOS>BOND
     1    1    2 1
     2    1   29 1
     3    1   30 1
     4    1   31 1
     5    2   20 1
     6    2    3 1
     7    3    8 ar
     8    3    4 ar
     9    4    5 ar
    10    4   19 1
    11    5    6 ar
    12    5   18 1
    13    6    7 ar
    14    7    8 ar
    15    7    9 1
    16    9   10 3
    17   10   11 1
    18   11   16 1
    19   11   12 1
    20   11   17 1
    21   12   13 1
    22   12   32 1
    23   12   33 1
    24   13   14 1
    25   13   34 1
    26   13   35 1
    27   14   15 1
    28   14   36 1
    29   14   37 1
    30   15   16 1
    31   15   38 1
    32   15   39 1
    33   16   40 1
    34   16   41 1
    35   17   42 1
    36   18   43 1
    37   18   44 1
    38   19   20 2
    39   20   21 1
    40   21   26 ar
    41   21   22 ar
    42   22   23 ar
    43   22   45 1
    44   23   24 ar
    45   23   46 1
    46   24   25 ar
    47   24   47 1
    48   25   26 ar
    49   25   27 1
    50   26   48 1
    51   27   28 3
