@<TRIPOS>MOLECULE
CHEMBL1087820
   54    58     0     0     0
SMALL
USER_CHARGES

@<TRIPOS>ATOM
      1 C1         -0.0167    1.3793    0.0096 C.ar      1 <0>        -0.0831
      2 C2          1.1685    2.0929    0.0021 C.ar      1 <0>        -0.1315
      3 C3          2.3774    1.4279   -0.0130 C.ar      1 <0>        -0.0619
      4 C4          2.4029    0.0333   -0.0207 C.ar      1 <0>        -0.0963
      5 C5          1.2046   -0.6805   -0.0131 C.ar      1 <0>        -0.0588
      6 C6          0.0021   -0.0041    0.0020 C.ar      1 <0>        -0.1254
      7 C7          3.6972   -0.6866   -0.0375 C.ar      1 <0>         0.3587
      8 C8          3.8485   -1.9053    0.6416 C.ar      1 <0>        -0.3352
      9 C9          5.0995   -2.5526    0.5963 C.ar      1 <0>         0.2801
     10 N1          6.0850   -1.9878   -0.0854 N.ar      1 <0>        -0.5856
     11 C10         5.9016   -0.8324   -0.7162 C.ar      1 <0>         0.6080
     12 N2          4.7422   -0.1938   -0.7026 N.ar      1 <0>        -0.5581
     13 N3          6.9560   -0.2811   -1.4137 N.pl3     1 <0>        -0.8007
     14 C11         5.0091   -3.8087    1.3828 C.ar      1 <0>        -0.0121
     15 C12         5.9398   -4.8012    1.6568 C.ar      1 <0>        -0.1132
     16 C13         5.5832   -5.8911    2.4363 C.ar      1 <0>        -0.0741
     17 C14         4.3040   -5.9981    2.9448 C.ar      1 <0>        -0.0936
     18 C15         3.3631   -5.0152    2.6796 C.ar      1 <0>        -0.0218
     19 C16         3.7079   -3.9189    1.9009 C.ar      1 <0>        -0.1340
     20 C17         2.9384   -2.7304    1.4536 C.2       1 <0>         0.4550
     21 O1          1.7764   -2.4848    1.7094 O.2       1 <0>        -0.3893
     22 C18         7.3386   -4.6945    1.1063 C.3       1 <0>         0.0427
     23 N4          8.1250   -3.7772    1.9419 N.4       1 <0>        -0.3746
     24 C19         8.3170   -4.3521    3.2537 C.3       1 <0>        -0.0263
     25 C20         8.2694   -3.2725    4.3486 C.3       1 <0>        -0.1439
     26 C21         9.0084   -1.9820    3.9434 C.3       1 <0>        -0.1425
     27 C22        10.3200   -2.2399    3.2491 C.3       1 <0>        -0.1332
     28 C23        10.0823   -2.3100    1.7213 C.3       1 <0>        -0.1552
     29 C24         9.4561   -3.5737    1.3441 C.3       1 <0>        -0.0012
     30 H1         -0.9604    1.9042    0.0260 H         1 <0>         0.1313
     31 H2          1.1475    3.1726    0.0078 H         1 <0>         0.1323
     32 H3          3.3020    1.9860   -0.0192 H         1 <0>         0.1300
     33 H4          1.2180   -1.7604   -0.0194 H         1 <0>         0.1327
     34 H5         -0.9264   -0.5556    0.0083 H         1 <0>         0.1325
     35 H6          7.8124   -0.7360   -1.4376 H         1 <0>         0.4174
     36 H7          6.8412    0.5615   -1.8803 H         1 <0>         0.4270
     37 H8          6.3105   -6.6613    2.6467 H         1 <0>         0.1498
     38 H9          4.0354   -6.8506    3.5509 H         1 <0>         0.1548
     39 H10         2.3631   -5.1023    3.0782 H         1 <0>         0.1538
     40 H11         7.8060   -5.6792    1.1086 H         1 <0>         0.1426
     41 H12         7.2994   -4.3132    0.0860 H         1 <0>         0.1454
     42 H13         7.5322   -5.0851    3.4407 H         1 <0>         0.1275
     43 H14         9.2855   -4.8513    3.2864 H         1 <0>         0.1315
     44 H15         7.2277   -3.0303    4.5591 H         1 <0>         0.0859
     45 H16         8.7262   -3.6699    5.2550 H         1 <0>         0.1084
     46 H17         8.3668   -1.4062    3.2764 H         1 <0>         0.0609
     47 H18         9.1971   -1.3909    4.8396 H         1 <0>         0.0916
     48 H19        11.0155   -1.4309    3.4727 H         1 <0>         0.0901
     49 H20        10.7363   -3.1854    3.5967 H         1 <0>         0.0792
     50 H21         9.4341   -1.4863    1.4221 H         1 <0>         0.0850
     51 H22        11.0383   -2.2168    1.2060 H         1 <0>         0.1178
     52 H23        10.1064   -4.3912    1.6554 H         1 <0>         0.1288
     53 H24         9.3588   -3.6039    0.2589 H         1 <0>         0.1276
     54 H25         7.6468   -2.8923    2.0219 H         1 <0>         0.4231
@<TRIPOS>BOND
     1    1    6 ar
     2    1    2 ar
     3    1   30 1
     4    2    3 ar
     5    2   31 1
     6    3    4 ar
     7    3   32 1
     8    4    5 ar
     9    4    7 1
    10    5    6 ar
    11    5   33 1
    12    6   34 1
    13    7   12 ar
    14    7    8 ar
    15    8   20 1
    16    8    9 ar
    17    9   10 ar
    18    9   14 1
    19   10   11 ar
    20   11   12 ar
    21   11   13 1
    22   13   35 1
    23   13   36 1
    24   14   19 ar
    25   14   15 ar
    26   15   16 ar
    27   15   22 1
    28   16   17 ar
    29   16   37 1
    30   17   18 ar
    31   17   38 1
    32   18   19 ar
    33   18   39 1
    34   19   20 1
    35   20   21 2
    36   22   23 1
    37   22   40 1
    38   22   41 1
    39   23   29 1
    40   23   24 1
    41   23   54 1
    42   24   25 1
    43   24   42 1
    44   24   43 1
    45   25   26 1
    46   25   44 1
    47   25   45 1
    48   26   27 1
    49   26   46 1
    50   26   47 1
    51   27   28 1
    52   27   48 1
    53   27   49 1
    54   28   29 1
    55   28   50 1
    56   28   51 1
    57   29   52 1
    58   29   53 1
