@<TRIPOS>MOLECULE
CHEMBL456287
   49    52     0     0     0
SMALL
USER_CHARGES

@<TRIPOS>ATOM
      1 C1         -0.2216    1.6736   -0.8767 C.3       1 <0>        -0.0733
      2 C2         -0.0898    0.1922   -0.6335 C.2       1 <0>         0.0899
      3 C3         -0.2439   -0.8129   -1.5959 C.2       1 <0>        -0.2671
      4 C4         -0.0489   -2.0054   -0.9887 C.2       1 <0>         0.1236
      5 N1          0.2208   -1.7607    0.3208 N.pl3     1 <0>        -0.3181
      6 N2          0.1936   -0.3730    0.5113 N.2       1 <0>        -0.2625
      7 C5          0.4834   -2.7197    1.2990 C.ar      1 <0>         0.6327
      8 N3          0.6155   -3.9860    0.9400 N.ar      1 <0>        -0.5643
      9 C6          0.8667   -4.9287    1.8444 C.ar      1 <0>         0.4616
     10 C7          0.9900   -4.5677    3.1817 C.ar      1 <0>        -0.3527
     11 C8          0.8445   -3.2249    3.5211 C.ar      1 <0>         0.4921
     12 N4          0.5990   -2.3377    2.5601 N.ar      1 <0>        -0.5838
     13 N5          0.9586   -2.8175    4.8411 N.pl3     1 <0>        -0.5907
     14 C9          0.6956   -1.4242    5.2378 C.3       1 <0>         0.1201
     15 C10        -0.5186   -1.4212    6.1653 C.3       1 <0>        -0.0988
     16 C11        -0.3843   -2.4802    7.2276 C.ar      1 <0>        -0.0663
     17 C12        -1.1555   -2.3428    8.3756 C.ar      1 <0>        -0.1191
     18 C13        -1.0876   -3.2821    9.3831 C.ar      1 <0>        -0.1146
     19 C14        -0.2468   -4.3718    9.2518 C.ar      1 <0>        -0.1200
     20 C15         0.5225   -4.5090    8.1148 C.ar      1 <0>        -0.1119
     21 C16         0.4594   -3.5609    7.1026 C.ar      1 <0>        -0.1016
     22 C17         1.3402   -3.7585    5.8996 C.3       1 <0>         0.1645
     23 N6          1.0036   -6.2580    1.4576 N.am      1 <0>        -0.6551
     24 C18         0.9874   -6.5844    0.1501 C.2       1 <0>         0.5010
     25 O1          0.7609   -5.7342   -0.6844 O.2       1 <0>        -0.4672
     26 C19         1.2508   -8.0060   -0.2749 C.3       1 <0>        -0.1689
     27 C20        -0.1182   -3.3602   -1.6451 C.3       1 <0>        -0.0810
     28 H1          0.7488    2.0835   -1.1569 H         1 <0>         0.0809
     29 H2         -0.9356    1.8475   -1.6817 H         1 <0>         0.0815
     30 H3         -0.5732    2.1612    0.0325 H         1 <0>         0.0755
     31 H4         -0.4776   -0.6623   -2.6395 H         1 <0>         0.1575
     32 H5          1.1933   -5.3107    3.9387 H         1 <0>         0.1484
     33 H6          1.5614   -1.0205    5.7624 H         1 <0>         0.0740
     34 H7          0.4856   -0.8224    4.3535 H         1 <0>         0.1089
     35 H8         -0.6035   -0.4444    6.6415 H         1 <0>         0.0890
     36 H9         -1.4176   -1.6130    5.5796 H         1 <0>         0.0805
     37 H10        -1.8135   -1.4927    8.4798 H         1 <0>         0.1229
     38 H11        -1.6893   -3.1665   10.2725 H         1 <0>         0.1240
     39 H12        -0.1927   -5.1127   10.0358 H         1 <0>         0.1251
     40 H13         1.1791   -5.3602    8.0116 H         1 <0>         0.1245
     41 H14         1.2304   -4.7795    5.5341 H         1 <0>         0.0963
     42 H15         2.3786   -3.5848    6.1822 H         1 <0>         0.0847
     43 H16         1.1107   -6.9498    2.1289 H         1 <0>         0.4225
     44 H17         1.4323   -8.6211    0.6065 H         1 <0>         0.0781
     45 H18         0.3851   -8.3904   -0.8142 H         1 <0>         0.1011
     46 H19         2.1257   -8.0349   -0.9245 H         1 <0>         0.1013
     47 H20         0.8856   -3.6804   -1.9243 H         1 <0>         0.0846
     48 H21        -0.5486   -4.0798   -0.9486 H         1 <0>         0.1005
     49 H22        -0.7417   -3.3003   -2.5371 H         1 <0>         0.0696
@<TRIPOS>BOND
     1    1    2 1
     2    1   28 1
     3    1   29 1
     4    1   30 1
     5    2    6 2
     6    2    3 1
     7    3    4 2
     8    3   31 1
     9    4    5 1
    10    4   27 1
    11    5    6 1
    12    5    7 1
    13    7   12 ar
    14    7    8 ar
    15    8    9 ar
    16    9   10 ar
    17    9   23 1
    18   10   11 ar
    19   10   32 1
    20   11   12 ar
    21   11   13 1
    22   13   22 1
    23   13   14 1
    24   14   15 1
    25   14   33 1
    26   14   34 1
    27   15   16 1
    28   15   35 1
    29   15   36 1
    30   16   21 ar
    31   16   17 ar
    32   17   18 ar
    33   17   37 1
    34   18   19 ar
    35   18   38 1
    36   19   20 ar
    37   19   39 1
    38   20   21 ar
    39   20   40 1
    40   21   22 1
    41   22   41 1
    42   22   42 1
    43   23   24 am
    44   23   43 1
    45   24   25 2
    46   24   26 1
    47   26   44 1
    48   26   45 1
    49   26   46 1
    50   27   47 1
    51   27   48 1
    52   27   49 1
