@<TRIPOS>MOLECULE
CHEMBL609816
   53    56     0     0     0
SMALL
USER_CHARGES

@<TRIPOS>ATOM
      1 C1         -0.0171    1.4074    0.0098 C.ar      1 <0>        -0.1219
      2 C2          1.1593    2.1000    0.0023 C.ar      1 <0>        -0.0404
      3 C3          2.3707    1.4222   -0.0129 C.ar      1 <0>        -0.0249
      4 C4          2.4030    0.0344   -0.0212 C.ar      1 <0>        -0.0379
      5 C5          1.2405   -0.6813   -0.0144 C.ar      1 <0>        -0.1301
      6 C6          0.0021   -0.0041    0.0020 C.ar      1 <0>         0.0295
      7 C7         -1.2046   -0.7307    0.0101 C.2       1 <0>        -0.1418
      8 C8         -1.1788   -2.1366    0.0023 C.2       1 <0>        -0.0268
      9 C9         -2.3604   -2.8480    0.0102 C.2       1 <0>        -0.0021
     10 N1         -2.3358   -4.1872    0.0028 N.2       1 <0>        -0.1697
     11 N2         -3.4409   -4.8526    0.0102 N.pl3     1 <0>        -0.4609
     12 C10        -3.4157   -6.2267    0.0026 C.ar      1 <0>         0.6220
     13 N3         -2.2388   -6.8461   -0.0070 N.ar      1 <0>        -0.5826
     14 C11        -2.1601   -8.1687   -0.0141 C.ar      1 <0>         0.5374
     15 C12        -3.3606   -8.9152   -0.0115 C.ar      1 <0>        -0.1229
     16 C13        -4.5852   -8.2097   -0.0012 C.ar      1 <0>         0.3422
     17 N4         -4.5669   -6.8878    0.0105 N.ar      1 <0>        -0.5811
     18 N5         -5.5706   -9.1681   -0.0004 N.pl3     1 <0>        -0.4658
     19 C14        -4.9539  -10.3807   -0.0097 C.2       1 <0>         0.2534
     20 N6         -3.6574  -10.2235   -0.0161 N.2       1 <0>        -0.4521
     21 C15        -7.0158   -8.9283    0.0093 C.3       1 <0>         0.3138
     22 C16        -7.5472   -8.7872   -1.4344 C.3       1 <0>         0.0790
     23 H1         -6.8858   -9.2953   -2.1362 H         1 <0>         0.0869
     24 C17        -8.9286   -9.4781   -1.3952 C.3       1 <0>         0.0473
     25 H2         -8.9502  -10.3278   -2.0776 H         1 <0>         0.0880
     26 C18        -9.0685   -9.9549    0.0675 C.3       1 <0>         0.0505
     27 H3         -9.6168   -9.2190    0.6557 H         1 <0>         0.1001
     28 O1         -7.7118  -10.0732    0.5484 O.3       1 <0>        -0.3455
     29 C19        -9.7750  -11.3109    0.1204 C.3       1 <0>         0.0819
     30 O2         -9.9983  -11.6789    1.4831 O.3       1 <0>        -0.5636
     31 O3         -9.9630   -8.5481   -1.7227 O.3       1 <0>        -0.5393
     32 O4         -7.6835   -7.4087   -1.7853 O.3       1 <0>        -0.5279
     33 N7         -0.9331   -8.8036   -0.0245 N.pl3     1 <0>        -0.8087
     34 N8          3.6390    2.1859   -0.0209 N.pl3     1 <0>        -0.0151
     35 O5          3.6148    3.5026   -0.0136 O.2       1 <0>        -0.1789
     36 O6          4.7913    1.5485   -0.0354 O.3       1 <0>        -0.1784
     37 H4         -0.9582    1.9370    0.0261 H         1 <0>         0.1516
     38 H5          1.1475    3.1799    0.0078 H         1 <0>         0.1548
     39 H6          3.3518   -0.4813   -0.0333 H         1 <0>         0.1549
     40 H7          1.2682   -1.7610   -0.0211 H         1 <0>         0.1525
     41 H8         -2.1496   -0.2080    0.0223 H         1 <0>         0.1355
     42 H9         -0.2338   -2.6593   -0.0099 H         1 <0>         0.1338
     43 H10        -3.3054   -2.3253    0.0224 H         1 <0>         0.1209
     44 H11        -4.2897   -4.3832    0.0211 H         1 <0>         0.4040
     45 H12        -5.4621  -11.3337   -0.0111 H         1 <0>         0.2240
     46 H13        -7.2477   -8.0353    0.5897 H         1 <0>         0.1229
     47 H14       -10.7310  -11.2431   -0.3989 H         1 <0>         0.0673
     48 H15        -9.1522  -12.0642   -0.3620 H         1 <0>         0.0616
     49 H16       -10.4436  -12.5302    1.5927 H         1 <0>         0.3873
     50 H17       -10.8518   -8.9290   -1.7132 H         1 <0>         0.3880
     51 H18        -8.0139   -7.2619   -2.6822 H         1 <0>         0.3913
     52 H19        -0.1163   -8.2804   -0.0265 H         1 <0>         0.4134
     53 H20        -0.8884   -9.7726   -0.0296 H         1 <0>         0.4225
@<TRIPOS>BOND
     1    1    6 ar
     2    1    2 ar
     3    1   37 1
     4    2    3 ar
     5    2   38 1
     6    3    4 ar
     7    3   34 1
     8    4    5 ar
     9    4   39 1
    10    5    6 ar
    11    5   40 1
    12    6    7 1
    13    7    8 2
    14    7   41 1
    15    8    9 1
    16    8   42 1
    17    9   10 2
    18    9   43 1
    19   10   11 1
    20   11   12 1
    21   11   44 1
    22   12   17 ar
    23   12   13 ar
    24   13   14 ar
    25   14   15 ar
    26   14   33 1
    27   15   20 1
    28   15   16 ar
    29   16   17 ar
    30   16   18 1
    31   18   19 1
    32   18   21 1
    33   19   20 2
    34   19   45 1
    35   21   28 1
    36   21   22 1
    37   21   46 1
    38   22   23 1
    39   22   24 1
    40   22   32 1
    41   24   25 1
    42   24   26 1
    43   24   31 1
    44   26   27 1
    45   26   28 1
    46   26   29 1
    47   29   30 1
    48   29   47 1
    49   29   48 1
    50   30   49 1
    51   31   50 1
    52   32   51 1
    53   33   52 1
    54   33   53 1
    55   34   35 2
    56   34   36 1
