@<TRIPOS>MOLECULE
CHEMBL609256
   53    56     0     0     0
SMALL
USER_CHARGES

@<TRIPOS>ATOM
      1 C1         -0.0164    1.3601    0.0095 C.2       1 <0>         0.2492
      2 N1          1.2003    1.8207    0.0004 N.2       1 <0>        -0.4505
      3 C2          2.0748    0.7851   -0.0135 C.ar      1 <0>        -0.1451
      4 C3          3.4767    0.6778   -0.0279 C.ar      1 <0>         0.5382
      5 N2          4.0210   -0.5334   -0.0400 N.ar      1 <0>        -0.5918
      6 C4          3.2657   -1.6250   -0.0386 C.ar      1 <0>         0.6504
      7 N3          1.9437   -1.5691   -0.0253 N.ar      1 <0>        -0.5993
      8 C5          1.3165   -0.3973   -0.0126 C.ar      1 <0>         0.3562
      9 N4          0.0021   -0.0041    0.0020 N.pl3     1 <0>        -0.4734
     10 C6         -1.1669   -0.8870    0.0089 C.3       1 <0>         0.3154
     11 C7         -1.5541   -1.2554    1.4583 C.3       1 <0>         0.0792
     12 H1         -1.1953   -0.4969    2.1540 H         1 <0>         0.0861
     13 C8         -3.0988   -1.2844    1.4384 C.3       1 <0>         0.0470
     14 H2         -3.5037   -0.5402    2.1242 H         1 <0>         0.0870
     15 C9         -3.4622   -0.9301   -0.0207 C.3       1 <0>         0.0505
     16 H3         -3.6137   -1.8377   -0.6051 H         1 <0>         0.0992
     17 O1         -2.3213   -0.1969   -0.5174 O.3       1 <0>        -0.3462
     18 C10        -4.7178   -0.0568   -0.0599 C.3       1 <0>         0.0822
     19 O2         -5.1032    0.1626   -1.4183 O.3       1 <0>        -0.5634
     20 O3         -3.5795   -2.5874    1.7747 O.3       1 <0>        -0.5394
     21 O4         -1.0309   -2.5390    1.8055 O.3       1 <0>        -0.5268
     22 N5          3.8829   -2.8658   -0.0520 N.pl3     1 <0>        -0.5482
     23 N6          5.2811   -2.9525   -0.0667 N.2       1 <0>        -0.2083
     24 C11         5.8512   -4.0986   -0.0791 C.2       1 <0>         0.0638
     25 C12         7.3552   -4.1919   -0.0949 C.3       1 <0>        -0.0300
     26 C13         7.8069   -4.9361   -1.3532 C.3       1 <0>        -0.1098
     27 C14         9.3338   -5.0309   -1.3692 C.3       1 <0>        -0.1190
     28 C15         9.8108   -5.7895   -0.1291 C.3       1 <0>        -0.1222
     29 C16         9.3592   -5.0453    1.1291 C.3       1 <0>        -0.1190
     30 C17         7.8322   -4.9506    1.1452 C.3       1 <0>        -0.1096
     31 N7          4.2721    1.8100   -0.0299 N.pl3     1 <0>        -0.8140
     32 H4         -0.9091    1.9678    0.0254 H         1 <0>         0.2211
     33 H5         -0.9653   -1.7869   -0.5722 H         1 <0>         0.1211
     34 H6         -5.5266   -0.5593    0.4706 H         1 <0>         0.0665
     35 H7         -4.5096    0.9006    0.4179 H         1 <0>         0.0613
     36 H8         -5.8940    0.7099   -1.5193 H         1 <0>         0.3866
     37 H9         -4.5436   -2.6624    1.7773 H         1 <0>         0.3870
     38 H10        -1.2444   -2.8204    2.7057 H         1 <0>         0.3898
     39 H11         3.3468   -3.6742   -0.0513 H         1 <0>         0.4023
     40 H12         5.2543   -4.9987   -0.0783 H         1 <0>         0.1079
     41 H13         7.7815   -3.1887   -0.0935 H         1 <0>         0.0913
     42 H14         7.3806   -5.9393   -1.3546 H         1 <0>         0.0663
     43 H15         7.4670   -4.3957   -2.2366 H         1 <0>         0.0655
     44 H16         9.6556   -5.5610   -2.2656 H         1 <0>         0.0645
     45 H17         9.7601   -4.0277   -1.3677 H         1 <0>         0.0644
     46 H18         9.3845   -6.7927   -0.1306 H         1 <0>         0.0625
     47 H19        10.8987   -5.8570   -0.1405 H         1 <0>         0.0621
     48 H20         9.6990   -5.5858    2.0126 H         1 <0>         0.0644
     49 H21         9.7855   -4.0421    1.1306 H         1 <0>         0.0644
     50 H22         7.5105   -4.4204    2.0415 H         1 <0>         0.0654
     51 H23         7.4059   -5.9537    1.1437 H         1 <0>         0.0663
     52 H24         3.8636    2.6897   -0.0213 H         1 <0>         0.4200
     53 H25         5.2382    1.7240   -0.0398 H         1 <0>         0.4110
@<TRIPOS>BOND
     1    1    9 1
     2    1    2 2
     3    1   32 1
     4    2    3 1
     5    3    8 ar
     6    3    4 ar
     7    4    5 ar
     8    4   31 1
     9    5    6 ar
    10    6    7 ar
    11    6   22 1
    12    7    8 ar
    13    8    9 1
    14    9   10 1
    15   10   17 1
    16   10   11 1
    17   10   33 1
    18   11   12 1
    19   11   13 1
    20   11   21 1
    21   13   14 1
    22   13   15 1
    23   13   20 1
    24   15   16 1
    25   15   17 1
    26   15   18 1
    27   18   19 1
    28   18   34 1
    29   18   35 1
    30   19   36 1
    31   20   37 1
    32   21   38 1
    33   22   23 1
    34   22   39 1
    35   23   24 2
    36   24   25 1
    37   24   40 1
    38   25   30 1
    39   25   26 1
    40   25   41 1
    41   26   27 1
    42   26   42 1
    43   26   43 1
    44   27   28 1
    45   27   44 1
    46   27   45 1
    47   28   29 1
    48   28   46 1
    49   28   47 1
    50   29   30 1
    51   29   48 1
    52   29   49 1
    53   30   50 1
    54   30   51 1
    55   31   52 1
    56   31   53 1
