@<TRIPOS>MOLECULE
CHEMBL95101
   43    46     0     0     0
SMALL
USER_CHARGES

@<TRIPOS>ATOM
      1 C1         -0.0184    1.5028    0.0103 C.3       1 <0>        -0.0954
      2 C2          0.0021   -0.0041    0.0020 C.2       1 <0>        -0.0984
      3 C3          0.0085   -0.7983   -1.0816 C.2       1 <0>         0.0909
      4 N1          0.0279   -2.1148   -0.6934 N.pl3     1 <0>        -0.3795
      5 C4          0.0346   -2.1987    0.6747 C.ar      1 <0>         0.3201
      6 C5          0.0251   -0.8808    1.1711 C.ar      1 <0>        -0.2224
      7 C6          0.0352   -0.6816    2.5612 C.ar      1 <0>         0.5502
      8 N2          0.0568   -1.7478    3.3528 N.ar      1 <0>        -0.5426
      9 C7          0.0687   -2.9760    2.8452 C.ar      1 <0>         0.5174
     10 N3          0.0514   -3.2069    1.5418 N.ar      1 <0>        -0.5340
     11 C8          0.0933   -4.1314    3.7739 C.ar      1 <0>        -0.1104
     12 C9          0.1120   -5.4320    3.2724 C.ar      1 <0>        -0.0838
     13 C10         0.1349   -6.5035    4.1416 C.ar      1 <0>        -0.1149
     14 C11         0.1387   -6.2890    5.5082 C.ar      1 <0>        -0.0610
     15 C12         0.1198   -5.0007    6.0117 C.ar      1 <0>        -0.1204
     16 C13         0.1036   -3.9213    5.1520 C.ar      1 <0>        -0.0317
     17 N4          0.0233    0.5952    3.0935 N.pl3     1 <0>        -0.7756
     18 C14         0.0393   -3.2106   -1.5664 C.ar      1 <0>         0.0586
     19 C15        -1.0409   -4.0823   -1.6027 C.ar      1 <0>        -0.1113
     20 C16        -1.0269   -5.1614   -2.4647 C.ar      1 <0>        -0.0992
     21 C17         0.0613   -5.3740   -3.2910 C.ar      1 <0>        -0.0857
     22 C18         1.1385   -4.5076   -3.2572 C.ar      1 <0>        -0.0987
     23 C19         1.1282   -3.4238   -2.4011 C.ar      1 <0>        -0.0915
     24 C20        -0.0043   -0.3162   -2.5093 C.3       1 <0>        -0.1000
     25 H1          1.0042    1.8801    0.0026 H         1 <0>         0.0882
     26 H2         -0.5455    1.8639   -0.8728 H         1 <0>         0.0901
     27 H3         -0.5286    1.8543    0.9071 H         1 <0>         0.0689
     28 H4          0.1083   -5.6006    2.2056 H         1 <0>         0.1226
     29 H5          0.1494   -7.5116    3.7543 H         1 <0>         0.1434
     30 H6          0.1563   -7.1307    6.1848 H         1 <0>         0.1427
     31 H7          0.1225   -4.8392    7.0795 H         1 <0>         0.1454
     32 H8          0.0940   -2.9158    5.5461 H         1 <0>         0.1505
     33 H9          0.0078    1.3660    2.5049 H         1 <0>         0.4292
     34 H10         0.0304    0.7197    4.0555 H         1 <0>         0.4288
     35 H11        -1.8909   -3.9170   -0.9574 H         1 <0>         0.1308
     36 H12        -1.8666   -5.8400   -2.4932 H         1 <0>         0.1438
     37 H13         0.0700   -6.2187   -3.9640 H         1 <0>         0.1428
     38 H14         1.9870   -4.6763   -3.9037 H         1 <0>         0.1449
     39 H15         1.9681   -2.7452   -2.3780 H         1 <0>         0.1371
     40 H16         1.0202   -0.1861   -2.8581 H         1 <0>         0.0930
     41 H17        -0.5110   -1.0499   -3.1361 H         1 <0>         0.0809
     42 H18        -0.5312    0.6363   -2.5665 H         1 <0>         0.1016
     43 H19         0.0621   -4.1204    1.2159 H         1 <0>         0.4349
@<TRIPOS>BOND
     1    1    2 1
     2    1   25 1
     3    1   26 1
     4    1   27 1
     5    2    6 1
     6    2    3 2
     7    3    4 1
     8    3   24 1
     9    4    5 1
    10    4   18 1
    11    5   10 ar
    12    5    6 ar
    13    6    7 ar
    14    7    8 ar
    15    7   17 1
    16    8    9 ar
    17    9   10 ar
    18    9   11 1
    19   10   43 1
    20   11   16 ar
    21   11   12 ar
    22   12   13 ar
    23   12   28 1
    24   13   14 ar
    25   13   29 1
    26   14   15 ar
    27   14   30 1
    28   15   16 ar
    29   15   31 1
    30   16   32 1
    31   17   33 1
    32   17   34 1
    33   18   23 ar
    34   18   19 ar
    35   19   20 ar
    36   19   35 1
    37   20   21 ar
    38   20   36 1
    39   21   22 ar
    40   21   37 1
    41   22   23 ar
    42   22   38 1
    43   23   39 1
    44   24   40 1
    45   24   41 1
    46   24   42 1
