@<TRIPOS>MOLECULE
CHEMBL446616
   66    71     0     0     0
SMALL
USER_CHARGES

@<TRIPOS>ATOM
      1 C1         -0.0164    1.3567    0.0095 C.ar      1 <0>        -0.1158
      2 C2          1.1685    2.0906    0.0021 C.ar      1 <0>        -0.1112
      3 C3          2.3785    1.4679   -0.0132 C.ar      1 <0>        -0.1073
      4 C4          2.4378    0.0637   -0.0214 C.ar      1 <0>        -0.0351
      5 C5          1.2328   -0.6827   -0.0134 C.ar      1 <0>        -0.0548
      6 C6          0.0021   -0.0041    0.0020 C.ar      1 <0>        -0.1045
      7 C7          1.2920   -2.0865   -0.0210 C.ar      1 <0>        -0.0945
      8 C8          2.5022   -2.7094   -0.0359 C.ar      1 <0>        -0.1199
      9 C9          3.6867   -1.9757   -0.0433 C.ar      1 <0>        -0.0882
     10 C10         3.6681   -0.6146   -0.0367 C.ar      1 <0>        -0.1020
     11 C11         4.9603    0.1606   -0.0459 C.3       1 <0>         0.1716
     12 N1          5.2692    0.6111    1.3134 N.pl3     1 <0>        -0.6884
     13 C12         6.4156    1.3474    1.5545 C.ar      1 <0>         0.5409
     14 C13         6.7295    1.7824    2.8541 C.ar      1 <0>        -0.1522
     15 C14         7.9058    2.5265    3.0411 C.ar      1 <0>         0.3601
     16 N2          8.6773    2.7933    1.9917 N.ar      1 <0>        -0.6052
     17 C15         8.3443    2.3649    0.7852 C.ar      1 <0>         0.6303
     18 N3          7.2458    1.6537    0.5642 N.ar      1 <0>        -0.6189
     19 N4          9.1741    2.6632   -0.2831 N.pl3     1 <0>        -0.6888
     20 C16         8.8292    2.2011   -1.6299 C.3       1 <0>         0.1606
     21 C17         9.3973    0.7863   -1.8648 C.3       1 <0>        -0.1336
     22 C18         9.8429    0.7973   -3.3481 C.3       1 <0>        -0.1251
     23 C19        10.4180    2.2250   -3.5216 C.3       1 <0>        -0.1245
     24 C20         9.4782    3.1159   -2.6833 C.3       1 <0>        -0.1334
     25 N5          7.9628    2.8143    4.3812 N.pl3     1 <0>        -0.4754
     26 C21         6.8610    2.2610    4.9655 C.2       1 <0>         0.2435
     27 N6          6.1391    1.6562    4.0680 N.2       1 <0>        -0.4501
     28 C22         9.0139    3.5761    5.0604 C.3       1 <0>         0.3169
     29 H1          9.9838    3.3695    4.6079 H         1 <0>         0.1196
     30 C23         8.7047    5.0885    5.0025 C.3       1 <0>         0.0801
     31 H2          7.6352    5.2551    4.8742 H         1 <0>         0.0849
     32 C24         9.1747    5.6205    6.3748 C.3       1 <0>         0.0469
     33 H3          8.3375    6.0501    6.9250 H         1 <0>         0.0861
     34 C25         9.7122    4.3666    7.0995 C.3       1 <0>         0.0506
     35 H4         10.7901    4.2815    6.9616 H         1 <0>         0.0988
     36 O1          9.0374    3.2554    6.4684 O.3       1 <0>        -0.3465
     37 C26         9.3699    4.4248    8.5896 C.3       1 <0>         0.0822
     38 O2          9.9743    3.3175    9.2608 O.3       1 <0>        -0.5633
     39 O3         10.2122    6.5890    6.2079 O.3       1 <0>        -0.5393
     40 O4          9.4374    5.7092    3.9442 O.3       1 <0>        -0.5253
     41 H5         -0.9634    1.8756    0.0259 H         1 <0>         0.1236
     42 H6          1.1258    3.1698    0.0084 H         1 <0>         0.1225
     43 H7          3.2883    2.0497   -0.0195 H         1 <0>         0.1267
     44 H8         -0.9241   -0.5595    0.0082 H         1 <0>         0.1277
     45 H9          0.3820   -2.6682   -0.0147 H         1 <0>         0.1287
     46 H10         2.5450   -3.7886   -0.0417 H         1 <0>         0.1264
     47 H11         4.6338   -2.4947   -0.0548 H         1 <0>         0.1260
     48 H12         5.7651   -0.4789   -0.4084 H         1 <0>         0.0799
     49 H13         4.8604    1.0257   -0.7015 H         1 <0>         0.0795
     50 H14         4.6700    0.3932    2.0445 H         1 <0>         0.4200
     51 H15         9.9835    3.1781   -0.1395 H         1 <0>         0.4127
     52 H16         7.7466    2.1953   -1.7565 H         1 <0>         0.0947
     53 H17        10.2507    0.6045   -1.2114 H         1 <0>         0.0677
     54 H18         8.6254    0.0337   -1.7039 H         1 <0>         0.0704
     55 H19        10.6129    0.0465   -3.5258 H         1 <0>         0.0672
     56 H20         8.9901    0.6415   -4.0088 H         1 <0>         0.0691
     57 H21        11.4362    2.2756   -3.1359 H         1 <0>         0.0664
     58 H22        10.3910    2.5224   -4.5699 H         1 <0>         0.0677
     59 H23         8.7106    3.5534   -3.3217 H         1 <0>         0.0752
     60 H24        10.0498    3.9036   -2.1925 H         1 <0>         0.0714
     61 H25         6.6237    2.3161    6.0177 H         1 <0>         0.2180
     62 H26         9.7468    5.3559    9.0129 H         1 <0>         0.0661
     63 H27         8.2882    4.3799    8.7159 H         1 <0>         0.0609
     64 H28         9.7989    3.2904   10.2114 H         1 <0>         0.3863
     65 H29        10.5447    6.9563    7.0383 H         1 <0>         0.3865
     66 H30         9.2808    6.6599    3.8623 H         1 <0>         0.3888
@<TRIPOS>BOND
     1    1    6 ar
     2    1    2 ar
     3    1   41 1
     4    2    3 ar
     5    2   42 1
     6    3    4 ar
     7    3   43 1
     8    4   10 ar
     9    4    5 ar
    10    5    6 ar
    11    5    7 ar
    12    6   44 1
    13    7    8 ar
    14    7   45 1
    15    8    9 ar
    16    8   46 1
    17    9   10 ar
    18    9   47 1
    19   10   11 1
    20   11   12 1
    21   11   48 1
    22   11   49 1
    23   12   13 1
    24   12   50 1
    25   13   18 ar
    26   13   14 ar
    27   14   27 1
    28   14   15 ar
    29   15   16 ar
    30   15   25 1
    31   16   17 ar
    32   17   18 ar
    33   17   19 1
    34   19   20 1
    35   19   51 1
    36   20   24 1
    37   20   21 1
    38   20   52 1
    39   21   22 1
    40   21   53 1
    41   21   54 1
    42   22   23 1
    43   22   55 1
    44   22   56 1
    45   23   24 1
    46   23   57 1
    47   23   58 1
    48   24   59 1
    49   24   60 1
    50   25   26 1
    51   25   28 1
    52   26   27 2
    53   26   61 1
    54   28   29 1
    55   28   36 1
    56   28   30 1
    57   30   31 1
    58   30   32 1
    59   30   40 1
    60   32   33 1
    61   32   34 1
    62   32   39 1
    63   34   35 1
    64   34   36 1
    65   34   37 1
    66   37   38 1
    67   37   62 1
    68   37   63 1
    69   38   64 1
    70   39   65 1
    71   40   66 1
