@<TRIPOS>MOLECULE
CHEMBL603581
   69    73     0     0     0
SMALL
USER_CHARGES

@<TRIPOS>ATOM
      1 C1         -0.0471    1.9727    0.3567 C.3       1 <0>        -0.1212
      2 C2          0.1009    0.5077    0.0360 C.ar      1 <0>        -0.0761
      3 C3          0.1034    0.0850   -1.2803 C.ar      1 <0>        -0.1180
      4 C4          0.2391   -1.2586   -1.5745 C.ar      1 <0>        -0.1139
      5 C5          0.3727   -2.1799   -0.5523 C.ar      1 <0>        -0.1230
      6 C6          0.3711   -1.7573    0.7636 C.ar      1 <0>        -0.1016
      7 C7          0.2397   -0.4128    1.0577 C.ar      1 <0>        -0.0807
      8 C8          0.2431    0.0486    2.4923 C.3       1 <0>        -0.0244
      9 C9         -0.8191   -0.7224    3.2786 C.3       1 <0>         0.1377
     10 N1         -2.1486   -0.3829    2.7655 N.pl3     1 <0>        -0.6889
     11 C10        -3.2746   -0.9613    3.3248 C.ar      1 <0>         0.5089
     12 C11        -4.5575   -0.6517    2.8415 C.ar      1 <0>        -0.1062
     13 C12        -5.6625   -1.2705    3.4496 C.ar      1 <0>         0.3135
     14 N2         -5.4571   -2.1196    4.4515 N.ar      1 <0>        -0.5516
     15 C13        -4.2369   -2.3796    4.8709 C.ar      1 <0>         0.3650
     16 N3         -3.1676   -1.8265    4.3277 N.ar      1 <0>        -0.5868
     17 N4         -6.7701   -0.7962    2.7935 N.pl3     1 <0>        -0.4713
     18 C14        -6.3371    0.0698    1.8340 C.2       1 <0>         0.2602
     19 N5         -5.0387    0.1532    1.8639 N.2       1 <0>        -0.4580
     20 C15        -8.1628   -1.1551    3.0725 C.3       1 <0>         0.3142
     21 C16        -8.7521   -0.2227    4.1540 C.3       1 <0>         0.0797
     22 H1         -8.2130    0.7243    4.1769 H         1 <0>         0.0854
     23 C17       -10.2138   -0.0027    3.7042 C.3       1 <0>         0.0471
     24 H2        -10.3973    1.0530    3.5047 H         1 <0>         0.0868
     25 C18       -10.3347   -0.8283    2.4041 C.3       1 <0>         0.0506
     26 H3        -10.7361   -1.8185    2.6193 H         1 <0>         0.0999
     27 O1         -8.9833   -0.9310    1.9052 O.3       1 <0>        -0.3471
     28 C19       -11.2244   -0.1023    1.3930 C.3       1 <0>         0.0821
     29 O2        -11.4179   -0.9327    0.2462 O.3       1 <0>        -0.5633
     30 O3        -11.1213   -0.4887    4.6953 O.3       1 <0>        -0.5389
     31 O4         -8.7093   -0.8529    5.4358 O.3       1 <0>        -0.5256
     32 C20         1.5994   -0.2051    3.0983 C.ar      1 <0>         0.0075
     33 C21         2.0257   -1.5012    3.3167 C.ar      1 <0>        -0.1799
     34 C22         3.2742   -1.7374    3.8746 C.ar      1 <0>         0.1710
     35 C23         4.0939   -0.6718    4.2129 C.ar      1 <0>        -0.2978
     36 C24         3.6639    0.6277    3.9927 C.ar      1 <0>         0.1694
     37 C25         2.4168    0.8586    3.4294 C.ar      1 <0>        -0.1786
     38 O5          4.4650    1.6744    4.3237 O.3       1 <0>        -0.3129
     39 C26         5.7374    1.3624    4.8944 C.3       1 <0>         0.0263
     40 O6          3.6928   -3.0123    4.0895 O.3       1 <0>        -0.3117
     41 C27         4.9890   -3.1809    4.6670 C.3       1 <0>         0.0262
     42 H4          0.9390    2.4148    0.4995 H         1 <0>         0.0733
     43 H5         -0.5549    2.4754   -0.4664 H         1 <0>         0.0690
     44 H6         -0.6323    2.0877    1.2691 H         1 <0>         0.0680
     45 H7         -0.0009    0.8048   -2.0788 H         1 <0>         0.1219
     46 H8          0.2404   -1.5888   -2.6027 H         1 <0>         0.1207
     47 H9          0.4780   -3.2299   -0.7821 H         1 <0>         0.1208
     48 H10         0.4751   -2.4771    1.5621 H         1 <0>         0.1230
     49 H11         0.0214    1.1151    2.5315 H         1 <0>         0.1036
     50 H12        -0.6487   -1.7931    3.1660 H         1 <0>         0.0777
     51 H13        -0.7570   -0.4535    4.3331 H         1 <0>         0.0798
     52 H14        -2.2398    0.2473    2.0337 H         1 <0>         0.4180
     53 H15        -4.1049   -3.0741    5.6874 H         1 <0>         0.2042
     54 H16        -6.9770    0.6075    1.1501 H         1 <0>         0.2216
     55 H17        -8.2296   -2.1960    3.3891 H         1 <0>         0.1231
     56 H18       -12.1895    0.1169    1.8498 H         1 <0>         0.0668
     57 H19       -10.7457    0.8291    1.0906 H         1 <0>         0.0609
     58 H20       -11.9737   -0.5351   -0.4380 H         1 <0>         0.3866
     59 H21       -12.0535   -0.3758    4.4643 H         1 <0>         0.3872
     60 H22        -9.0672   -0.3114    6.1525 H         1 <0>         0.3904
     61 H23         1.3867   -2.3310    3.0533 H         1 <0>         0.1345
     62 H24         5.0658   -0.8536    4.6475 H         1 <0>         0.1344
     63 H25         2.0832    1.8706    3.2536 H         1 <0>         0.1327
     64 H26         6.2745    2.2857    5.1113 H         1 <0>         0.1029
     65 H27         5.5937    0.8003    5.8172 H         1 <0>         0.0559
     66 H28         6.3144    0.7632    4.1901 H         1 <0>         0.0554
     67 H29         5.7385   -2.7327    4.0147 H         1 <0>         0.0550
     68 H30         5.0185   -2.6947    5.6421 H         1 <0>         0.0558
     69 H31         5.1989   -4.2440    4.7846 H         1 <0>         0.1030
@<TRIPOS>BOND
     1    1    2 1
     2    1   42 1
     3    1   43 1
     4    1   44 1
     5    2    7 ar
     6    2    3 ar
     7    3    4 ar
     8    3   45 1
     9    4    5 ar
    10    4   46 1
    11    5    6 ar
    12    5   47 1
    13    6    7 ar
    14    6   48 1
    15    7    8 1
    16    8    9 1
    17    8   32 1
    18    8   49 1
    19    9   10 1
    20    9   50 1
    21    9   51 1
    22   10   11 1
    23   10   52 1
    24   11   16 ar
    25   11   12 ar
    26   12   19 1
    27   12   13 ar
    28   13   14 ar
    29   13   17 1
    30   14   15 ar
    31   15   16 ar
    32   15   53 1
    33   17   18 1
    34   17   20 1
    35   18   19 2
    36   18   54 1
    37   20   27 1
    38   20   21 1
    39   20   55 1
    40   21   22 1
    41   21   23 1
    42   21   31 1
    43   23   24 1
    44   23   25 1
    45   23   30 1
    46   25   26 1
    47   25   27 1
    48   25   28 1
    49   28   29 1
    50   28   56 1
    51   28   57 1
    52   29   58 1
    53   30   59 1
    54   31   60 1
    55   32   37 ar
    56   32   33 ar
    57   33   34 ar
    58   33   61 1
    59   34   35 ar
    60   34   40 1
    61   35   36 ar
    62   35   62 1
    63   36   37 ar
    64   36   38 1
    65   37   63 1
    66   38   39 1
    67   39   64 1
    68   39   65 1
    69   39   66 1
    70   40   41 1
    71   41   67 1
    72   41   68 1
    73   41   69 1
