@<TRIPOS>MOLECULE
CHEMBL300624
   40    42     0     0     0
SMALL
USER_CHARGES

@<TRIPOS>ATOM
      1 C1          0.1509    0.9060   -1.8564 C.3       1 <0>        -0.1385
      2 C2          0.0325   -0.6191   -1.8240 C.3       1 <0>         0.2422
      3 C3          1.0328   -1.1869   -0.8151 C.3       1 <0>        -0.1756
      4 C4         -1.3336   -0.9968   -1.4263 C.1       1 <0>        -0.1192
      5 C5         -2.4230   -1.2980   -1.1091 C.1       1 <0>        -0.0967
      6 C6         -3.7519   -1.6654   -0.7223 C.ar      1 <0>         0.4988
      7 N1         -4.6364   -0.7044   -0.4688 N.ar      1 <0>        -0.5723
      8 C7         -5.8792   -0.9945   -0.1077 C.ar      1 <0>         0.5186
      9 C8         -6.2502   -2.3491    0.0041 C.ar      1 <0>        -0.0966
     10 C9         -5.2804   -3.3307   -0.2740 C.ar      1 <0>         0.3088
     11 N2         -4.0608   -2.9520   -0.6340 N.ar      1 <0>        -0.5370
     12 N3         -5.8999   -4.5424   -0.0907 N.pl3     1 <0>        -0.4607
     13 C10        -7.1941   -4.2837    0.2837 C.2       1 <0>         0.3093
     14 N4         -7.3871   -2.9881    0.3356 N.2       1 <0>        -0.4385
     15 C11        -8.2159   -5.3100    0.5826 C.ar      1 <0>         0.0046
     16 C12        -7.8330   -6.5535    1.0879 C.ar      1 <0>        -0.1165
     17 C13        -8.7901   -7.5076    1.3651 C.ar      1 <0>        -0.0851
     18 C14       -10.1281   -7.2351    1.1432 C.ar      1 <0>        -0.1360
     19 C15       -10.5161   -6.0031    0.6418 C.ar      1 <0>         0.1043
     20 C16        -9.5668   -5.0371    0.3661 C.ar      1 <0>        -0.1074
     21 F1        -11.8245   -5.7437    0.4275 F         1 <0>        -0.1318
     22 C17        -5.2923   -5.8643   -0.2627 C.3       1 <0>         0.0709
     23 N5         -6.7921    0.0120    0.1543 N.pl3     1 <0>        -0.8111
     24 O1          0.3137   -1.1464   -3.1220 O.3       1 <0>        -0.5453
     25 H1          1.1624    1.1857   -2.1509 H         1 <0>         0.0778
     26 H2         -0.5617    1.3106   -2.5752 H         1 <0>         0.0687
     27 H3         -0.0636    1.3082   -0.8663 H         1 <0>         0.0781
     28 H4          0.8183   -0.7847    0.1750 H         1 <0>         0.0746
     29 H5          0.9484   -2.2734   -0.7920 H         1 <0>         0.0645
     30 H6          2.0443   -0.9073   -1.1096 H         1 <0>         0.0796
     31 H7         -6.7890   -6.7687    1.2612 H         1 <0>         0.1354
     32 H8         -8.4941   -8.4698    1.7560 H         1 <0>         0.1432
     33 H9        -10.8733   -7.9858    1.3612 H         1 <0>         0.1430
     34 H10        -9.8696   -4.0752   -0.0205 H         1 <0>         0.1488
     35 H11        -4.9406   -6.2308    0.7017 H         1 <0>         0.0843
     36 H12        -6.0330   -6.5550   -0.6658 H         1 <0>         0.0953
     37 H13        -4.4512   -5.7906   -0.9521 H         1 <0>         0.0989
     38 H14        -6.5256    0.9413    0.0745 H         1 <0>         0.4135
     39 H15        -7.6984   -0.2118    0.4177 H         1 <0>         0.4218
     40 H16         0.2571   -2.1102   -3.1757 H         1 <0>         0.3835
@<TRIPOS>BOND
     1    1    2 1
     2    1   25 1
     3    1   26 1
     4    1   27 1
     5    2    3 1
     6    2    4 1
     7    2   24 1
     8    3   28 1
     9    3   29 1
    10    3   30 1
    11    4    5 3
    12    5    6 1
    13    6   11 ar
    14    6    7 ar
    15    7    8 ar
    16    8    9 ar
    17    8   23 1
    18    9   14 1
    19    9   10 ar
    20   10   11 ar
    21   10   12 1
    22   12   13 1
    23   12   22 1
    24   13   14 2
    25   13   15 1
    26   15   20 ar
    27   15   16 ar
    28   16   17 ar
    29   16   31 1
    30   17   18 ar
    31   17   32 1
    32   18   19 ar
    33   18   33 1
    34   19   20 ar
    35   19   21 1
    36   20   34 1
    37   22   35 1
    38   22   36 1
    39   22   37 1
    40   23   38 1
    41   23   39 1
    42   24   40 1
