@<TRIPOS>MOLECULE
CHEMBL16867
   41    45     0     0     0
SMALL
USER_CHARGES

@<TRIPOS>ATOM
      1 C1         -0.0167    1.3781    0.0096 C.ar      1 <0>        -0.1184
      2 C2          1.1709    2.0855    0.0021 C.ar      1 <0>        -0.1180
      3 C3          2.3773    1.4107   -0.0130 C.ar      1 <0>        -0.1142
      4 C4          2.3960    0.0285   -0.0201 C.ar      1 <0>        -0.0891
      5 C5          1.2084   -0.6789   -0.0117 C.ar      1 <0>        -0.1113
      6 C6          0.0021   -0.0041    0.0020 C.ar      1 <0>        -0.1174
      7 C7          3.7112   -0.7071   -0.0376 C.3       1 <0>        -0.0917
      8 C8          4.1714   -0.9633    1.3989 C.3       1 <0>         0.1354
      9 N1          5.4498   -1.6784    1.3820 N.pl3     1 <0>        -0.3410
     10 C9          6.5699   -1.2759    2.0073 C.2       1 <0>         0.1613
     11 C10         7.5466   -2.2046    1.7564 C.2       1 <0>        -0.2755
     12 C11         6.9387   -3.2417    0.9077 C.2       1 <0>         0.3228
     13 N2          5.6880   -2.8871    0.7172 N.2       1 <0>        -0.2678
     14 N3          7.7100   -4.2894    0.5136 N.2       1 <0>        -0.5331
     15 C12         8.9620   -4.3948    0.8667 C.2       1 <0>         0.6849
     16 N4          9.6106   -3.4805    1.6532 N.pl3     1 <0>        -0.3798
     17 C13         8.9582   -2.3726    2.1239 C.2       1 <0>         0.4126
     18 N5          9.8084   -1.6741    2.8424 N.2       1 <0>        -0.5147
     19 C14        10.9984   -2.2902    2.8567 C.2       1 <0>         0.3417
     20 N6         10.9218   -3.3971    2.1446 N.2       1 <0>        -0.2894
     21 C15        12.2046   -1.8065    3.5604 C.2       1 <0>         0.0441
     22 C16        13.4179   -2.4196    3.5776 C.2       1 <0>        -0.1382
     23 C17        14.2677   -1.6158    4.3632 C.2       1 <0>        -0.2190
     24 C18        13.5387   -0.5629    4.7825 C.2       1 <0>        -0.0061
     25 O1         12.2944   -0.6787    4.2915 O.3       1 <0>        -0.1533
     26 N7          9.6706   -5.4872    0.4237 N.pl3     1 <0>        -0.8079
     27 H1         -0.9591    1.9053    0.0259 H         1 <0>         0.1229
     28 H2          1.1563    3.1654    0.0076 H         1 <0>         0.1236
     29 H3          3.3051    1.9634   -0.0196 H         1 <0>         0.1228
     30 H4          1.2231   -1.7588   -0.0176 H         1 <0>         0.1246
     31 H5         -0.9258   -0.5567    0.0082 H         1 <0>         0.1239
     32 H6          3.5884   -1.6586   -0.5549 H         1 <0>         0.0928
     33 H7          4.4573   -0.1052   -0.5563 H         1 <0>         0.0812
     34 H8          4.2941   -0.0118    1.9163 H         1 <0>         0.1083
     35 H9          3.4252   -1.5652    1.9176 H         1 <0>         0.0986
     36 H10         6.6805   -0.3806    2.6010 H         1 <0>         0.1979
     37 H11        13.6797   -3.3441    3.0846 H         1 <0>         0.1602
     38 H12        15.3067   -1.8075    4.5871 H         1 <0>         0.1593
     39 H13        13.8970    0.2425    5.4064 H         1 <0>         0.2138
     40 H14         9.2380   -6.1520   -0.1347 H         1 <0>         0.4298
     41 H15        10.6029   -5.5929    0.6698 H         1 <0>         0.4235
@<TRIPOS>BOND
     1    1    6 ar
     2    1    2 ar
     3    1   27 1
     4    2    3 ar
     5    2   28 1
     6    3    4 ar
     7    3   29 1
     8    4    5 ar
     9    4    7 1
    10    5    6 ar
    11    5   30 1
    12    6   31 1
    13    7    8 1
    14    7   32 1
    15    7   33 1
    16    8    9 1
    17    8   34 1
    18    8   35 1
    19    9   13 1
    20    9   10 1
    21   10   11 2
    22   10   36 1
    23   11   17 1
    24   11   12 1
    25   12   13 2
    26   12   14 1
    27   14   15 2
    28   15   16 1
    29   15   26 1
    30   16   20 1
    31   16   17 1
    32   17   18 2
    33   18   19 1
    34   19   20 2
    35   19   21 1
    36   21   25 1
    37   21   22 2
    38   22   23 1
    39   22   37 1
    40   23   24 2
    41   23   38 1
    42   24   25 1
    43   24   39 1
    44   26   40 1
    45   26   41 1
