@<TRIPOS>MOLECULE
CHEMBL297685
   44    47     0     0     0
SMALL
USER_CHARGES

@<TRIPOS>ATOM
      1 C1         -0.4009    1.4270    0.0567 C.3       1 <0>         0.0670
      2 N1         -0.1690   -0.0191    0.0228 N.pl3     1 <0>        -0.4614
      3 C2         -0.1942   -0.8226   -1.0904 C.ar      1 <0>         0.3088
      4 C3          0.0828   -2.1269   -0.6383 C.ar      1 <0>        -0.0953
      5 C4          0.1192   -3.1677   -1.5867 C.ar      1 <0>         0.5182
      6 N2         -0.1085   -2.8744   -2.8602 N.ar      1 <0>        -0.5718
      7 C5         -0.3665   -1.6269   -3.2430 C.ar      1 <0>         0.4991
      8 N3         -0.4104   -0.6180   -2.3831 N.ar      1 <0>        -0.5363
      9 C6         -0.6052   -1.3643   -4.6303 C.1       1 <0>        -0.0985
     10 C7         -0.8009   -1.1491   -5.7677 C.1       1 <0>        -0.1153
     11 C8         -1.0463   -0.8792   -7.1938 C.3       1 <0>         0.2426
     12 C9          0.2117   -1.2180   -8.0198 C.3       1 <0>        -0.1442
     13 C10         0.2528   -0.1240   -9.1155 C.3       1 <0>        -0.1219
     14 C11        -0.2211    1.1394   -8.3549 C.3       1 <0>        -0.1251
     15 C12        -1.3215    0.6197   -7.4068 C.3       1 <0>        -0.1106
     16 O1         -2.1575   -1.6510   -7.6535 O.3       1 <0>        -0.5412
     17 N4          0.3872   -4.4685   -1.1981 N.pl3     1 <0>        -0.8111
     18 N5          0.2599   -2.0625    0.6941 N.2       1 <0>        -0.4380
     19 C13         0.1198   -0.8227    1.0966 C.2       1 <0>         0.3102
     20 C14         0.2496   -0.3614    2.4955 C.ar      1 <0>         0.0049
     21 C15         0.1595   -1.2759    3.5461 C.ar      1 <0>        -0.0806
     22 C16         0.2811   -0.8405    4.8494 C.ar      1 <0>        -0.0862
     23 C17         0.4921    0.5002    5.1177 C.ar      1 <0>        -0.1362
     24 C18         0.5823    1.4141    4.0803 C.ar      1 <0>         0.1049
     25 C19         0.4682    0.9888    2.7702 C.ar      1 <0>        -0.1511
     26 F1          0.7880    2.7220    4.3495 F         1 <0>        -0.1330
     27 H1          0.5553    1.9492    0.0231 H         1 <0>         0.0855
     28 H2         -1.0045    1.7185   -0.8028 H         1 <0>         0.1004
     29 H3         -0.9260    1.6894    0.9752 H         1 <0>         0.0970
     30 H4          1.1036   -1.1662   -7.3953 H         1 <0>         0.0797
     31 H5          0.1174   -2.2060   -8.4706 H         1 <0>         0.0814
     32 H6          1.2675    0.0090   -9.4908 H         1 <0>         0.0731
     33 H7         -0.4323   -0.3652   -9.9282 H         1 <0>         0.0753
     34 H8          0.6009    1.5720   -7.7845 H         1 <0>         0.0702
     35 H9         -0.6312    1.8719   -9.0502 H         1 <0>         0.0750
     36 H10        -2.3023    0.7583   -7.8617 H         1 <0>         0.0889
     37 H11        -1.2733    1.1473   -6.4542 H         1 <0>         0.0799
     38 H12        -2.0404   -2.6059   -7.5560 H         1 <0>         0.3832
     39 H13         0.5525   -4.6715   -0.2641 H         1 <0>         0.4217
     40 H14         0.4098   -5.1775   -1.8598 H         1 <0>         0.4134
     41 H15        -0.0056   -2.3229    3.3390 H         1 <0>         0.1455
     42 H16         0.2110   -1.5479    5.6624 H         1 <0>         0.1445
     43 H17         0.5867    0.8357    6.1399 H         1 <0>         0.1429
     44 H18         0.5433    1.7006    1.9614 H         1 <0>         0.1447
@<TRIPOS>BOND
     1    1    2 1
     2    1   27 1
     3    1   28 1
     4    1   29 1
     5    2   19 1
     6    2    3 1
     7    3    8 ar
     8    3    4 ar
     9    4    5 ar
    10    4   18 1
    11    5    6 ar
    12    5   17 1
    13    6    7 ar
    14    7    8 ar
    15    7    9 1
    16    9   10 3
    17   10   11 1
    18   11   15 1
    19   11   12 1
    20   11   16 1
    21   12   13 1
    22   12   30 1
    23   12   31 1
    24   13   14 1
    25   13   32 1
    26   13   33 1
    27   14   15 1
    28   14   34 1
    29   14   35 1
    30   15   36 1
    31   15   37 1
    32   16   38 1
    33   17   39 1
    34   17   40 1
    35   18   19 2
    36   19   20 1
    37   20   25 ar
    38   20   21 ar
    39   21   22 ar
    40   21   41 1
    41   22   23 ar
    42   22   42 1
    43   23   24 ar
    44   23   43 1
    45   24   25 ar
    46   24   26 1
    47   25   44 1
