@<TRIPOS>MOLECULE
CHEMBL472111
   55    60     0     0     0
SMALL
USER_CHARGES

@<TRIPOS>ATOM
      1 C1         -0.0172    1.3862   -0.0565 C.2       1 <0>        -0.2200
      2 C2          1.3252    1.8142   -0.0674 C.2       1 <0>        -0.1366
      3 C3          2.0937    0.6929   -0.0641 C.2       1 <0>         0.0415
      4 O1          1.2749   -0.3766   -0.0518 O.3       1 <0>        -0.1522
      5 C4         -0.0019    0.0388   -0.0471 C.2       1 <0>        -0.0036
      6 C5          3.5711    0.6540   -0.0725 C.2       1 <0>         0.3513
      7 N1          4.3174   -0.4579   -0.0745 N.2       1 <0>        -0.5157
      8 C6          5.5937   -0.1337   -0.0825 C.2       1 <0>         0.4060
      9 C7          6.8436   -0.8946   -0.0877 C.2       1 <0>        -0.2671
     10 C8          7.1683   -2.2631   -0.0871 C.2       1 <0>         0.1325
     11 N2          8.4680   -2.3789   -0.0941 N.2       1 <0>        -0.2644
     12 N3          9.0502   -1.1053   -0.0997 N.pl3     1 <0>        -0.3555
     13 C9          8.0506   -0.1791   -0.0958 C.2       1 <0>         0.3722
     14 N4          8.0250    1.1609   -0.0977 N.2       1 <0>        -0.5604
     15 C10         6.9039    1.8394   -0.0923 C.2       1 <0>         0.6924
     16 N5          5.6808    1.2342   -0.0859 N.pl3     1 <0>        -0.3765
     17 N6          4.3632    1.7095   -0.0851 N.2       1 <0>        -0.2994
     18 N7          6.9621    3.2135   -0.0948 N.pl3     1 <0>        -0.8018
     19 C11        10.4868   -0.8180   -0.1073 C.3       1 <0>         0.1421
     20 C12        10.9797   -0.7205   -1.5524 C.3       1 <0>         0.0501
     21 N8         12.3907   -0.3119   -1.5619 N.3       1 <0>        -0.5628
     22 C13        12.7207    0.3931   -2.7898 C.3       1 <0>         0.0787
     23 C14        14.0138    1.1980   -2.6260 C.3       1 <0>        -0.0859
     24 C15        15.1849    0.2762   -2.8968 C.ar      1 <0>        -0.0324
     25 C16        15.9501    0.4528   -4.0349 C.ar      1 <0>        -0.1131
     26 C17        17.0183   -0.3916   -4.2780 C.ar      1 <0>        -0.0576
     27 C18        17.3168   -1.4054   -3.3866 C.ar      1 <0>        -0.0512
     28 C19        16.5484   -1.5773   -2.2495 C.ar      1 <0>        -0.0498
     29 C20        15.4817   -0.7302   -2.0111 C.ar      1 <0>        -0.0826
     30 C21        14.6381   -0.9136   -0.7666 C.3       1 <0>        -0.0790
     31 C22        13.2565   -1.4198   -1.1925 C.3       1 <0>         0.0708
     32 N9         18.4599   -2.3083   -3.6498 N.pl3     1 <0>         0.0329
     33 O2         19.1318   -2.1589   -4.6437 O.2       1 <0>        -0.1584
     34 O3         18.7216   -3.1950   -2.8708 O.3       1 <0>        -0.1579
     35 H1         -0.8928    2.0185   -0.0518 H         1 <0>         0.1596
     36 H2          1.6758    2.8356   -0.0772 H         1 <0>         0.1600
     37 H3         -0.8721   -0.6008   -0.0368 H         1 <0>         0.2143
     38 H4          6.4616   -3.0797   -0.0816 H         1 <0>         0.2025
     39 H5          7.8219    3.6625   -0.1005 H         1 <0>         0.4306
     40 H6          6.1434    3.7337   -0.0909 H         1 <0>         0.4265
     41 H7         10.6711    0.1268    0.4040 H         1 <0>         0.1097
     42 H8         11.0201   -1.6186    0.4053 H         1 <0>         0.1005
     43 H9         10.8795   -1.6918   -2.0368 H         1 <0>         0.0504
     44 H10        10.3842    0.0171   -2.0904 H         1 <0>         0.0811
     45 H11        12.8482   -0.3303   -3.5951 H         1 <0>         0.0366
     46 H12        11.9060    1.0712   -3.0438 H         1 <0>         0.0861
     47 H13        14.0247    2.0244   -3.3367 H         1 <0>         0.0887
     48 H14        14.0789    1.5860   -1.6095 H         1 <0>         0.0996
     49 H15        15.7153    1.2456   -4.7296 H         1 <0>         0.1486
     50 H16        17.6196   -0.2591   -5.1653 H         1 <0>         0.1533
     51 H17        16.7798   -2.3688   -1.5521 H         1 <0>         0.1542
     52 H18        15.1092   -1.6427   -0.1075 H         1 <0>         0.0881
     53 H19        14.5364    0.0397   -0.2478 H         1 <0>         0.0979
     54 H20        12.8047   -1.9675   -0.3655 H         1 <0>         0.0868
     55 H21        13.3672   -2.0883   -2.0463 H         1 <0>         0.0383
@<TRIPOS>BOND
     1    1    5 2
     2    1    2 1
     3    1   35 1
     4    2    3 2
     5    2   36 1
     6    3    4 1
     7    3    6 1
     8    4    5 1
     9    5   37 1
    10    6   17 2
    11    6    7 1
    12    7    8 2
    13    8   16 1
    14    8    9 1
    15    9   13 2
    16    9   10 1
    17   10   11 2
    18   10   38 1
    19   11   12 1
    20   12   13 1
    21   12   19 1
    22   13   14 1
    23   14   15 2
    24   15   16 1
    25   15   18 1
    26   16   17 1
    27   18   39 1
    28   18   40 1
    29   19   20 1
    30   19   41 1
    31   19   42 1
    32   20   21 1
    33   20   43 1
    34   20   44 1
    35   21   31 1
    36   21   22 1
    37   22   23 1
    38   22   45 1
    39   22   46 1
    40   23   24 1
    41   23   47 1
    42   23   48 1
    43   24   29 ar
    44   24   25 ar
    45   25   26 ar
    46   25   49 1
    47   26   27 ar
    48   26   50 1
    49   27   28 ar
    50   27   32 1
    51   28   29 ar
    52   28   51 1
    53   29   30 1
    54   30   31 1
    55   30   52 1
    56   30   53 1
    57   31   54 1
    58   31   55 1
    59   32   33 2
    60   32   34 1
