@<TRIPOS>MOLECULE
CHEMBL1095490
   52    56     0     0     0
SMALL
USER_CHARGES

@<TRIPOS>ATOM
      1 C1         -0.0167    1.3793    0.0096 C.ar      1 <0>        -0.0886
      2 C2          1.1685    2.0928    0.0021 C.ar      1 <0>        -0.1323
      3 C3          2.3774    1.4278   -0.0134 C.ar      1 <0>        -0.0641
      4 C4          2.4029    0.0333   -0.0211 C.ar      1 <0>        -0.0873
      5 C5          1.2046   -0.6805   -0.0130 C.ar      1 <0>        -0.0598
      6 C6          0.0021   -0.0041    0.0020 C.ar      1 <0>        -0.1268
      7 C7          3.6972   -0.6867   -0.0382 C.ar      1 <0>         0.3488
      8 C8          3.8487   -1.9052    0.6408 C.ar      1 <0>        -0.3435
      9 C9          5.0993   -2.5521    0.5951 C.ar      1 <0>         0.2955
     10 N1          6.0849   -1.9875   -0.0867 N.ar      1 <0>        -0.5600
     11 C10         5.9016   -0.8321   -0.7173 C.ar      1 <0>         0.6047
     12 N2          4.7420   -0.1939   -0.7037 N.ar      1 <0>        -0.5638
     13 N3          6.9561   -0.2805   -1.4147 N.pl3     1 <0>        -0.8010
     14 C11         5.0084   -3.8085    1.3817 C.ar      1 <0>         0.0141
     15 C12         5.9376   -4.7992    1.6548 C.ar      1 <0>        -0.0959
     16 C13         5.5783   -5.8943    2.4383 C.ar      1 <0>         0.1421
     17 C14         4.2923   -5.9980    2.9474 C.ar      1 <0>        -0.1949
     18 C15         3.3573   -5.0146    2.6802 C.ar      1 <0>        -0.0077
     19 C16         3.7055   -3.9176    1.9000 C.ar      1 <0>        -0.1682
     20 C17         2.9384   -2.7306    1.4531 C.2       1 <0>         0.4626
     21 O1          1.7762   -2.4842    1.7093 O.2       1 <0>        -0.4052
     22 O2          6.4903   -6.8635    2.7038 O.3       1 <0>        -0.3212
     23 C18         6.0564   -7.9584    3.5131 C.3       1 <0>         0.0238
     24 C19         7.2128   -8.9422    3.7024 C.3       1 <0>         0.0037
     25 N4          8.2864   -8.2946    4.4679 N.4       1 <0>        -0.3968
     26 C20         7.8480   -8.0607    5.8677 C.3       1 <0>        -0.0111
     27 C21         9.1844   -7.9288    6.6404 C.3       1 <0>        -0.1449
     28 C22        10.0897   -8.9720    5.9459 C.3       1 <0>        -0.1452
     29 C23         9.4604   -9.1897    4.5573 C.3       1 <0>        -0.0085
     30 H1         -0.9604    1.9042    0.0260 H         1 <0>         0.1288
     31 H2          1.1475    3.1726    0.0081 H         1 <0>         0.1304
     32 H3          3.3020    1.9859   -0.0199 H         1 <0>         0.1300
     33 H4          1.2180   -1.7604   -0.0192 H         1 <0>         0.1335
     34 H5         -0.9264   -0.5556    0.0082 H         1 <0>         0.1301
     35 H6          7.8126   -0.7353   -1.4386 H         1 <0>         0.4202
     36 H7          6.8412    0.5622   -1.8812 H         1 <0>         0.4237
     37 H8          6.9401   -4.7231    1.2602 H         1 <0>         0.1497
     38 H9          4.0203   -6.8492    3.5539 H         1 <0>         0.1433
     39 H10         2.3567   -5.0985    3.0779 H         1 <0>         0.1496
     40 H11         5.7334   -7.5860    4.4852 H         1 <0>         0.0901
     41 H12         5.2248   -8.4650    3.0234 H         1 <0>         0.1136
     42 H13         6.8586   -9.8194    4.2440 H         1 <0>         0.1509
     43 H14         7.5942   -9.2466    2.7277 H         1 <0>         0.1429
     44 H15         7.2690   -7.1401    5.9407 H         1 <0>         0.1337
     45 H16         7.2720   -8.9090    6.2373 H         1 <0>         0.1357
     46 H17         9.5966   -6.9258    6.5297 H         1 <0>         0.0985
     47 H18         9.0475   -8.1768    7.6929 H         1 <0>         0.1176
     48 H19        11.1039   -8.5855    5.8452 H         1 <0>         0.1058
     49 H20        10.0936   -9.9047    6.5099 H         1 <0>         0.1046
     50 H21         9.1449  -10.2276    4.4512 H         1 <0>         0.1319
     51 H22        10.1806   -8.9363    3.7794 H         1 <0>         0.1334
     52 H23         8.5465   -7.4219    4.0333 H         1 <0>         0.4337
@<TRIPOS>BOND
     1    1    6 ar
     2    1    2 ar
     3    1   30 1
     4    2    3 ar
     5    2   31 1
     6    3    4 ar
     7    3   32 1
     8    4    5 ar
     9    4    7 1
    10    5    6 ar
    11    5   33 1
    12    6   34 1
    13    7   12 ar
    14    7    8 ar
    15    8   20 1
    16    8    9 ar
    17    9   10 ar
    18    9   14 1
    19   10   11 ar
    20   11   12 ar
    21   11   13 1
    22   13   35 1
    23   13   36 1
    24   14   19 ar
    25   14   15 ar
    26   15   16 ar
    27   15   37 1
    28   16   17 ar
    29   16   22 1
    30   17   18 ar
    31   17   38 1
    32   18   19 ar
    33   18   39 1
    34   19   20 1
    35   20   21 2
    36   22   23 1
    37   23   24 1
    38   23   40 1
    39   23   41 1
    40   24   25 1
    41   24   42 1
    42   24   43 1
    43   25   29 1
    44   25   26 1
    45   25   52 1
    46   26   27 1
    47   26   44 1
    48   26   45 1
    49   27   28 1
    50   27   46 1
    51   27   47 1
    52   28   29 1
    53   28   48 1
    54   28   49 1
    55   29   50 1
    56   29   51 1
