@<TRIPOS>MOLECULE
CHEMBL468295
   47    50     0     0     0
SMALL
USER_CHARGES

@<TRIPOS>ATOM
      1 C1         -0.0178    1.4608    0.0101 C.3       1 <0>         0.0824
      2 N1          0.0021   -0.0041    0.0020 N.am      1 <0>        -0.5223
      3 C2         -1.1911   -0.7148    0.0039 C.2       1 <0>         0.1483
      4 C3         -2.5378   -0.3412    0.0118 C.2       1 <0>        -0.1914
      5 C4         -3.2889   -1.4825    0.0090 C.2       1 <0>         0.1455
      6 N2         -2.4510   -2.5624   -0.0006 N.pl3     1 <0>        -0.5010
      7 H1         -2.7257   -3.4926   -0.0047 H         1 <0>         0.4304
      8 C5         -1.1497   -2.1067   -0.0039 C.2       1 <0>        -0.1007
      9 C6          0.1090   -2.7498   -0.0122 C.2       1 <0>         0.5863
     10 O1          0.1782   -3.9659   -0.0195 O.2       1 <0>        -0.5161
     11 N3          1.2324   -2.0043   -0.0125 N.am      1 <0>        -0.5511
     12 C7          1.1773   -0.6615   -0.0127 C.2       1 <0>         0.7006
     13 O2          2.2134   -0.0250   -0.0192 O.2       1 <0>        -0.5403
     14 C8          2.5372   -2.6703   -0.0212 C.3       1 <0>         0.0827
     15 C9         -4.7662   -1.5400    0.0157 C.ar      1 <0>        -0.0199
     16 C10        -5.5135   -0.3611    0.0200 C.ar      1 <0>        -0.0915
     17 C11        -6.8917   -0.4218    0.0257 C.ar      1 <0>        -0.0843
     18 C12        -7.5333   -1.6476    0.0272 C.ar      1 <0>        -0.0914
     19 C13        -6.7984   -2.8199    0.0234 C.ar      1 <0>        -0.0832
     20 C14        -5.4196   -2.7733    0.0118 C.ar      1 <0>        -0.1128
     21 C15        -9.0391   -1.7062    0.0335 C.3       1 <0>         0.1247
     22 O3         -9.5207   -1.7234   -1.3118 O.3       1 <0>        -0.3489
     23 C16       -10.8555   -1.7752   -1.4827 C.2       1 <0>         0.6466
     24 O4        -11.5912   -1.8049   -0.5158 O.2       1 <0>        -0.5360
     25 N4        -11.3755   -1.7939   -2.7259 N.am      1 <0>        -0.6011
     26 C17       -12.7612   -1.8477   -2.9033 C.2       1 <0>         0.0740
     27 C18       -13.4773   -1.8798   -4.0615 C.2       1 <0>        -0.2002
     28 C19       -14.8575   -1.9327   -3.9903 C.2       1 <0>        -0.1352
     29 C20       -15.4538   -1.9510   -2.7743 C.2       1 <0>        -0.2163
     30 S1        -14.0516   -1.8999   -1.6707 S.3       1 <0>         0.1499
     31 H2          1.0048    1.8381    0.0023 H         1 <0>         0.1030
     32 H3         -0.5450    1.8219   -0.8730 H         1 <0>         0.0776
     33 H4         -0.5280    1.8123    0.9069 H         1 <0>         0.0779
     34 H5         -2.9173    0.6699    0.0190 H         1 <0>         0.1609
     35 H6          2.8568   -2.8299   -1.0510 H         1 <0>         0.0758
     36 H7          3.2674   -2.0456    0.4932 H         1 <0>         0.0960
     37 H8          2.4582   -3.6309    0.4878 H         1 <0>         0.0943
     38 H9         -5.0139    0.5964    0.0192 H         1 <0>         0.1381
     39 H10        -7.4711    0.4896    0.0294 H         1 <0>         0.1350
     40 H11        -7.3053   -3.7736    0.0253 H         1 <0>         0.1327
     41 H12        -4.8472   -3.6891    0.0043 H         1 <0>         0.1250
     42 H13        -9.3654   -2.6102    0.5478 H         1 <0>         0.0851
     43 H14        -9.4346   -0.8316    0.5499 H         1 <0>         0.0861
     44 H15       -10.7883   -1.7702   -3.4976 H         1 <0>         0.4271
     45 H16       -12.9764   -1.8638   -5.0182 H         1 <0>         0.1352
     46 H17       -15.4517   -1.9588   -4.8918 H         1 <0>         0.1359
     47 H18       -16.5060   -1.9903   -2.5342 H         1 <0>         0.1866
@<TRIPOS>BOND
     1    1    2 1
     2    1   31 1
     3    1   32 1
     4    1   33 1
     5    2   12 am
     6    2    3 1
     7    3    8 2
     8    3    4 1
     9    4    5 2
    10    4   34 1
    11    5    6 1
    12    5   15 1
    13    6    7 1
    14    6    8 1
    15    8    9 1
    16    9   10 2
    17    9   11 am
    18   11   12 am
    19   11   14 1
    20   12   13 2
    21   14   35 1
    22   14   36 1
    23   14   37 1
    24   15   20 ar
    25   15   16 ar
    26   16   17 ar
    27   16   38 1
    28   17   18 ar
    29   17   39 1
    30   18   19 ar
    31   18   21 1
    32   19   20 ar
    33   19   40 1
    34   20   41 1
    35   21   22 1
    36   21   42 1
    37   21   43 1
    38   22   23 1
    39   23   24 2
    40   23   25 am
    41   25   26 1
    42   25   44 1
    43   26   30 1
    44   26   27 2
    45   27   28 1
    46   27   45 1
    47   28   29 2
    48   28   46 1
    49   29   30 1
    50   29   47 1
