@<TRIPOS>MOLECULE
CHEMBL259607
   36    39     0     0     0
SMALL
USER_CHARGES

@<TRIPOS>ATOM
      1 C1         -0.0167    1.3792    0.0096 C.ar      1 <0>        -0.0931
      2 C2          1.1685    2.0928    0.0021 C.ar      1 <0>        -0.1257
      3 C3          2.3774    1.4278   -0.0134 C.ar      1 <0>        -0.0635
      4 C4          2.4029    0.0333   -0.0211 C.ar      1 <0>        -0.0745
      5 C5          1.2046   -0.6805   -0.0130 C.ar      1 <0>        -0.0864
      6 C6          0.0021   -0.0041    0.0020 C.ar      1 <0>        -0.1199
      7 C7          3.6971   -0.6866   -0.0382 C.ar      1 <0>         0.3266
      8 C8          3.8458   -1.9115    0.6457 C.ar      1 <0>        -0.1884
      9 C9          5.1026   -2.5515    0.5936 C.ar      1 <0>         0.3282
     10 N1          6.0870   -1.9779   -0.0927 N.ar      1 <0>        -0.5628
     11 C10         5.9007   -0.8260   -0.7197 C.ar      1 <0>         0.5997
     12 N2          4.7369   -0.1924   -0.7029 N.ar      1 <0>        -0.5621
     13 N3          6.9533   -0.2694   -1.4195 N.pl3     1 <0>        -0.8051
     14 C11         5.3215   -3.8382    1.2908 C.ar      1 <0>        -0.0638
     15 C12         4.6815   -4.0937    2.5044 C.ar      1 <0>        -0.0731
     16 C13         4.8866   -5.2927    3.1531 C.ar      1 <0>        -0.1000
     17 C14         5.7285   -6.2491    2.6031 C.ar      1 <0>         0.0604
     18 C15         6.3707   -5.9995    1.3903 C.ar      1 <0>         0.0268
     19 C16         6.1640   -4.8011    0.7335 C.ar      1 <0>        -0.0453
     20 O1          7.1333   -7.0857    1.0696 O.3       1 <0>        -0.3039
     21 C17         7.2727   -7.8317    2.2932 C.3       1 <0>         0.2121
     22 O2          6.0896   -7.4905    3.0391 O.3       1 <0>        -0.3036
     23 C18         2.7543   -2.4880    1.3715 C.1       1 <0>         0.2685
     24 N4          1.8883   -2.9453    1.9472 N.1       1 <0>        -0.4030
     25 H1         -0.9604    1.9042    0.0260 H         1 <0>         0.1291
     26 H2          1.1475    3.1726    0.0081 H         1 <0>         0.1314
     27 H3          3.3020    1.9860   -0.0199 H         1 <0>         0.1343
     28 H4          1.2180   -1.7604   -0.0192 H         1 <0>         0.1252
     29 H5         -0.9264   -0.5556    0.0079 H         1 <0>         0.1305
     30 H6          7.8111   -0.7214   -1.4459 H         1 <0>         0.4206
     31 H7          6.8347    0.5736   -1.8845 H         1 <0>         0.4206
     32 H8          4.0256   -3.3519    2.9355 H         1 <0>         0.1410
     33 H9          4.3909   -5.4883    4.0925 H         1 <0>         0.1456
     34 H10         6.6570   -4.6084   -0.2079 H         1 <0>         0.1481
     35 H11         7.3007   -8.9019    2.0881 H         1 <0>         0.1363
     36 H12         8.1679   -7.5204    2.8316 H         1 <0>         0.0894
@<TRIPOS>BOND
     1    1    6 ar
     2    1    2 ar
     3    1   25 1
     4    2    3 ar
     5    2   26 1
     6    3    4 ar
     7    3   27 1
     8    4    5 ar
     9    4    7 1
    10    5    6 ar
    11    5   28 1
    12    6   29 1
    13    7   12 ar
    14    7    8 ar
    15    8    9 ar
    16    8   23 1
    17    9   10 ar
    18    9   14 1
    19   10   11 ar
    20   11   12 ar
    21   11   13 1
    22   13   30 1
    23   13   31 1
    24   14   19 ar
    25   14   15 ar
    26   15   16 ar
    27   15   32 1
    28   16   17 ar
    29   16   33 1
    30   17   22 1
    31   17   18 ar
    32   18   19 ar
    33   18   20 1
    34   19   34 1
    35   20   21 1
    36   21   22 1
    37   21   35 1
    38   21   36 1
    39   23   24 3
