@<TRIPOS>MOLECULE
CHEMBL1087714
   47    51     0     0     0
SMALL
USER_CHARGES

@<TRIPOS>ATOM
      1 C1         -0.0167    1.3793    0.0096 C.ar      1 <0>        -0.0930
      2 C2          1.1685    2.0929    0.0021 C.ar      1 <0>        -0.1341
      3 C3          2.3774    1.4279   -0.0130 C.ar      1 <0>        -0.0661
      4 C4          2.4029    0.0333   -0.0207 C.ar      1 <0>        -0.0807
      5 C5          1.2046   -0.6805   -0.0131 C.ar      1 <0>        -0.0596
      6 C6          0.0021   -0.0041    0.0020 C.ar      1 <0>        -0.1271
      7 C7          3.6972   -0.6866   -0.0375 C.ar      1 <0>         0.3419
      8 C8          3.8485   -1.9053    0.6416 C.ar      1 <0>        -0.3477
      9 C9          5.0995   -2.5526    0.5963 C.ar      1 <0>         0.3073
     10 N1          6.0850   -1.9878   -0.0854 N.ar      1 <0>        -0.5632
     11 C10         5.9016   -0.8324   -0.7162 C.ar      1 <0>         0.6026
     12 N2          4.7422   -0.1938   -0.7026 N.ar      1 <0>        -0.5703
     13 N3          6.9560   -0.2811   -1.4137 N.pl3     1 <0>        -0.8045
     14 C11         5.0091   -3.8087    1.3828 C.ar      1 <0>        -0.0377
     15 C12         5.9398   -4.8012    1.6568 C.ar      1 <0>        -0.0614
     16 C13         5.5832   -5.8911    2.4363 C.ar      1 <0>        -0.0621
     17 C14         4.3040   -5.9981    2.9448 C.ar      1 <0>        -0.0795
     18 C15         3.3631   -5.0152    2.6796 C.ar      1 <0>        -0.0498
     19 C16         3.7079   -3.9189    1.9009 C.ar      1 <0>        -0.1433
     20 C17         2.9384   -2.7304    1.4536 C.2       1 <0>         0.4637
     21 O1          1.7764   -2.4848    1.7094 O.2       1 <0>        -0.4125
     22 C18         6.5980   -6.9658    2.7299 C.3       1 <0>         0.0947
     23 N4          7.3232   -6.6308    3.9628 N.3       1 <0>        -0.6813
     24 C19         8.3233   -7.6587    4.2810 C.3       1 <0>         0.1422
     25 C20         9.0452   -7.2816    5.5489 C.2       1 <0>        -0.0228
     26 C21         8.6810   -7.6319    6.7955 C.2       1 <0>        -0.1835
     27 C22         9.6334   -7.0670    7.6746 C.2       1 <0>        -0.2163
     28 C23        10.5227   -6.4052    6.9126 C.2       1 <0>        -0.0360
     29 O2         10.1646   -6.5435    5.6255 O.3       1 <0>        -0.1794
     30 H1         -0.9604    1.9042    0.0260 H         1 <0>         0.1265
     31 H2          1.1475    3.1726    0.0078 H         1 <0>         0.1281
     32 H3          3.3020    1.9860   -0.0192 H         1 <0>         0.1291
     33 H4          1.2180   -1.7604   -0.0194 H         1 <0>         0.1349
     34 H5         -0.9264   -0.5556    0.0083 H         1 <0>         0.1290
     35 H6          7.8124   -0.7360   -1.4376 H         1 <0>         0.4194
     36 H7          6.8412    0.5615   -1.8803 H         1 <0>         0.4208
     37 H8          6.9422   -4.7247    1.2623 H         1 <0>         0.1366
     38 H9          4.0354   -6.8506    3.5509 H         1 <0>         0.1424
     39 H10         2.3631   -5.1023    3.0782 H         1 <0>         0.1423
     40 H11         6.0891   -7.9214    2.8559 H         1 <0>         0.0929
     41 H12         7.3029   -7.0360    1.9014 H         1 <0>         0.0502
     42 H13         7.7505   -5.7194    3.8946 H         1 <0>         0.3491
     43 H14         7.8263   -8.6191    4.4178 H         1 <0>         0.1057
     44 H15         9.0401   -7.7337    3.4633 H         1 <0>         0.0513
     45 H16         7.8249   -8.2296    7.0719 H         1 <0>         0.1490
     46 H17         9.6446   -7.1505    8.7513 H         1 <0>         0.1490
     47 H18        11.3812   -5.8588    7.2741 H         1 <0>         0.2030
@<TRIPOS>BOND
     1    1    6 ar
     2    1    2 ar
     3    1   30 1
     4    2    3 ar
     5    2   31 1
     6    3    4 ar
     7    3   32 1
     8    4    5 ar
     9    4    7 1
    10    5    6 ar
    11    5   33 1
    12    6   34 1
    13    7   12 ar
    14    7    8 ar
    15    8   20 1
    16    8    9 ar
    17    9   10 ar
    18    9   14 1
    19   10   11 ar
    20   11   12 ar
    21   11   13 1
    22   13   35 1
    23   13   36 1
    24   14   19 ar
    25   14   15 ar
    26   15   16 ar
    27   15   37 1
    28   16   17 ar
    29   16   22 1
    30   17   18 ar
    31   17   38 1
    32   18   19 ar
    33   18   39 1
    34   19   20 1
    35   20   21 2
    36   22   23 1
    37   22   40 1
    38   22   41 1
    39   23   24 1
    40   23   42 1
    41   24   25 1
    42   24   43 1
    43   24   44 1
    44   25   29 1
    45   25   26 2
    46   26   27 1
    47   26   45 1
    48   27   28 2
    49   27   46 1
    50   28   29 1
    51   28   47 1
