@<TRIPOS>MOLECULE
CHEMBL178589
   31    34     0     0     0
SMALL
USER_CHARGES

@<TRIPOS>ATOM
      1 C1         -0.0167    1.3787    0.0096 C.ar      1 <0>        -0.1783
      2 C2          1.1812    2.0723    0.0019 C.ar      1 <0>        -0.0275
      3 C3          2.3718    1.3392   -0.0134 C.ar      1 <0>        -0.1103
      4 C4          2.3057   -0.0536   -0.0202 C.ar      1 <0>         0.1345
      5 N1          1.1414   -0.6691   -0.0124 N.ar      1 <0>        -0.4833
      6 C5          0.0021   -0.0041    0.0020 C.ar      1 <0>         0.1173
      7 C6          3.6824    2.0311   -0.0227 C.2       1 <0>         0.2544
      8 C7          4.8523    1.2934   -0.0436 C.2       1 <0>        -0.2139
      9 C8          6.0786    1.9824   -0.0524 C.2       1 <0>         0.3540
     10 N2          7.3444    1.5952   -0.0713 N.2       1 <0>        -0.5210
     11 C9          8.1412    2.6686   -0.0713 C.2       1 <0>         0.3553
     12 N3          7.4018    3.7631   -0.0525 N.2       1 <0>        -0.3196
     13 N4          6.0622    3.3539   -0.0398 N.pl3     1 <0>        -0.3619
     14 C10         4.8744    4.0200   -0.0190 C.2       1 <0>         0.6566
     15 N5          3.7319    3.3722   -0.0164 N.2       1 <0>        -0.5521
     16 N6          4.8712    5.3953   -0.0061 N.pl3     1 <0>        -0.8062
     17 C11         9.6188    2.6359   -0.0896 C.2       1 <0>         0.0348
     18 C12        10.3916    1.5179   -0.1150 C.2       1 <0>        -0.1253
     19 C13        11.7322    1.9514   -0.1250 C.2       1 <0>        -0.2190
     20 C14        11.7116    3.2987   -0.1054 C.2       1 <0>        -0.0067
     21 O1         10.4332    3.7088   -0.0899 O.3       1 <0>        -0.1607
     22 H1         -0.9559    1.9116    0.0259 H         1 <0>         0.1427
     23 H2          1.1959    3.1522    0.0072 H         1 <0>         0.1478
     24 H3          3.2172   -0.6327   -0.0324 H         1 <0>         0.1649
     25 H4         -0.9308   -0.5482    0.0084 H         1 <0>         0.1619
     26 H5          4.8249    0.2138   -0.0526 H         1 <0>         0.1689
     27 H6          5.7100    5.8823   -0.0119 H         1 <0>         0.4252
     28 H7          4.0301    5.8782    0.0088 H         1 <0>         0.4299
     29 H8         10.0451    0.4950   -0.1250 H         1 <0>         0.1636
     30 H9         12.6102    1.3228   -0.1443 H         1 <0>         0.1601
     31 H10        12.5792    3.9418   -0.1060 H         1 <0>         0.2137
@<TRIPOS>BOND
     1    1    6 ar
     2    1    2 ar
     3    1   22 1
     4    2    3 ar
     5    2   23 1
     6    3    4 ar
     7    3    7 1
     8    4    5 ar
     9    4   24 1
    10    5    6 ar
    11    6   25 1
    12    7   15 1
    13    7    8 2
    14    8    9 1
    15    8   26 1
    16    9   13 1
    17    9   10 2
    18   10   11 1
    19   11   12 2
    20   11   17 1
    21   12   13 1
    22   13   14 1
    23   14   15 2
    24   14   16 1
    25   16   27 1
    26   16   28 1
    27   17   21 1
    28   17   18 2
    29   18   19 1
    30   18   29 1
    31   19   20 2
    32   19   30 1
    33   20   21 1
    34   20   31 1
