@<TRIPOS>MOLECULE
CHEMBL521438
   55    60     0     0     0
SMALL
USER_CHARGES

@<TRIPOS>ATOM
      1 C1         -0.0173    1.4248    0.0099 C.3       1 <0>         0.0257
      2 O1          0.0021   -0.0041    0.0020 O.3       1 <0>        -0.3164
      3 C2          0.6257   -0.6182    1.0413 C.ar      1 <0>         0.1311
      4 C3          1.2017    0.1416    2.0504 C.ar      1 <0>        -0.2061
      5 C4          1.8353   -0.4790    3.1065 C.ar      1 <0>        -0.0677
      6 C5          1.8967   -1.8704    3.1603 C.ar      1 <0>        -0.0871
      7 C6          1.3171   -2.6305    2.1459 C.ar      1 <0>        -0.0687
      8 C7          0.6806   -2.0044    1.0948 C.ar      1 <0>        -0.1494
      9 C8          2.5780   -2.5410    4.2948 C.ar      1 <0>        -0.0340
     10 C9          3.1533   -1.7822    5.3123 C.ar      1 <0>        -0.1127
     11 C10         3.7854   -2.4114    6.3656 C.ar      1 <0>        -0.1058
     12 C11         3.8490   -3.7924    6.4121 C.ar      1 <0>        -0.0876
     13 C12         3.2801   -4.5505    5.4046 C.ar      1 <0>        -0.1056
     14 C13         2.6401   -3.9321    4.3498 C.ar      1 <0>        -0.1125
     15 C14         4.5411   -4.4735    7.5646 C.3       1 <0>        -0.0947
     16 C15         3.5305   -4.7368    8.6827 C.3       1 <0>         0.1440
     17 N1          4.2033   -5.3990    9.8030 N.pl3     1 <0>        -0.3546
     18 C16         4.3420   -6.7445    9.9688 C.2       1 <0>         0.3702
     19 C17         5.0465   -6.9284   11.1683 C.2       1 <0>        -0.2670
     20 C18         5.3140   -5.6526   11.6962 C.2       1 <0>         0.1310
     21 N2          4.8198   -4.7581   10.8849 N.2       1 <0>        -0.2629
     22 C19         5.3357   -8.2989   11.5920 C.2       1 <0>         0.4065
     23 N3          5.9538   -8.8335   12.6246 N.2       1 <0>        -0.5161
     24 C20         5.9337  -10.1683   12.5191 C.2       1 <0>         0.3505
     25 N4          5.2996  -10.5077   11.4125 N.2       1 <0>        -0.2997
     26 N5          4.8990   -9.3196   10.7881 N.pl3     1 <0>        -0.3764
     27 C21         4.2207   -9.0390    9.6377 C.2       1 <0>         0.6918
     28 N6          3.9600   -7.8130    9.2555 N.2       1 <0>        -0.5611
     29 N7          3.7940  -10.0825    8.8498 N.pl3     1 <0>        -0.8022
     30 C22         6.5278  -11.1124   13.4887 C.2       1 <0>         0.0423
     31 C23         6.5187  -12.4682   13.3902 C.2       1 <0>        -0.1372
     32 C24         7.1931  -12.9621   14.5245 C.2       1 <0>        -0.2200
     33 C25         7.5765  -11.8944   15.2517 C.2       1 <0>        -0.0041
     34 O2          7.1773  -10.7786   14.6206 O.3       1 <0>        -0.1521
     35 H1          1.0053    1.8021    0.0021 H         1 <0>         0.0569
     36 H2         -0.5445    1.7859   -0.8732 H         1 <0>         0.1021
     37 H3         -0.5275    1.7763    0.9067 H         1 <0>         0.0569
     38 H4          1.1538    1.2197    2.0082 H         1 <0>         0.1311
     39 H5          2.2838    0.1126    3.8908 H         1 <0>         0.1289
     40 H6          1.3634   -3.7088    2.1848 H         1 <0>         0.1332
     41 H7          0.2280   -2.5930    0.3105 H         1 <0>         0.1340
     42 H8          3.1048   -0.7039    5.2766 H         1 <0>         0.1257
     43 H9          4.2316   -1.8243    7.1547 H         1 <0>         0.1261
     44 H10         3.3333   -5.6284    5.4457 H         1 <0>         0.1255
     45 H11         2.1920   -4.5250    3.5662 H         1 <0>         0.1263
     46 H12         4.9637   -5.4197    7.2266 H         1 <0>         0.0799
     47 H13         5.3390   -3.8325    7.9394 H         1 <0>         0.0840
     48 H14         3.1079   -3.7906    9.0207 H         1 <0>         0.1036
     49 H15         2.7326   -5.3779    8.3079 H         1 <0>         0.1016
     50 H16         5.8427   -5.4478   12.6155 H         1 <0>         0.2024
     51 H17         3.9769  -10.9972    9.1157 H         1 <0>         0.4264
     52 H18         3.3103   -9.9037    8.0283 H         1 <0>         0.4303
     53 H19         6.0792  -13.0536   12.5961 H         1 <0>         0.1599
     54 H20         7.3691  -14.0000   14.7656 H         1 <0>         0.1594
     55 H21         8.1184  -11.9302   16.1853 H         1 <0>         0.2142
@<TRIPOS>BOND
     1    1    2 1
     2    1   35 1
     3    1   36 1
     4    1   37 1
     5    2    3 1
     6    3    8 ar
     7    3    4 ar
     8    4    5 ar
     9    4   38 1
    10    5    6 ar
    11    5   39 1
    12    6    7 ar
    13    6    9 1
    14    7    8 ar
    15    7   40 1
    16    8   41 1
    17    9   14 ar
    18    9   10 ar
    19   10   11 ar
    20   10   42 1
    21   11   12 ar
    22   11   43 1
    23   12   13 ar
    24   12   15 1
    25   13   14 ar
    26   13   44 1
    27   14   45 1
    28   15   16 1
    29   15   46 1
    30   15   47 1
    31   16   17 1
    32   16   48 1
    33   16   49 1
    34   17   21 1
    35   17   18 1
    36   18   28 1
    37   18   19 2
    38   19   20 1
    39   19   22 1
    40   20   21 2
    41   20   50 1
    42   22   26 1
    43   22   23 2
    44   23   24 1
    45   24   25 2
    46   24   30 1
    47   25   26 1
    48   26   27 1
    49   27   28 2
    50   27   29 1
    51   29   51 1
    52   29   52 1
    53   30   34 1
    54   30   31 2
    55   31   32 1
    56   31   53 1
    57   32   33 2
    58   32   54 1
    59   33   34 1
    60   33   55 1
