@<TRIPOS>MOLECULE
CHEMBL603809
   60    63     0     0     0
SMALL
USER_CHARGES

@<TRIPOS>ATOM
      1 C1         -0.0187    1.5258    0.0104 C.3       1 <0>        -0.1679
      2 C2          0.0021   -0.0041    0.0020 C.3       1 <0>         0.1135
      3 N1          0.6878   -0.4765   -1.2033 N.am      1 <0>        -0.7272
      4 C3          0.8268   -1.7986   -1.4250 C.2       1 <0>         0.5161
      5 O1          0.3843   -2.5972   -0.6267 O.2       1 <0>        -0.5033
      6 C4          1.5322   -2.2846   -2.6649 C.3       1 <0>         0.0316
      7 H1          2.5323   -1.8560   -2.7290 H         1 <0>         0.1224
      8 C5          0.7085   -1.9402   -3.9319 C.3       1 <0>         0.0510
      9 H2         -0.3595   -2.0480   -3.7427 H         1 <0>         0.0953
     10 C6          1.2015   -3.0074   -4.9392 C.3       1 <0>         0.0825
     11 H3          0.3680   -3.3897   -5.5285 H         1 <0>         0.0904
     12 C7          1.7901   -4.1212   -4.0517 C.3       1 <0>         0.3135
     13 O2          1.5952   -3.7270   -2.6817 O.3       1 <0>        -0.3264
     14 N2          1.0956   -5.3847   -4.3118 N.pl3     1 <0>        -0.4738
     15 C8          0.0371   -5.8826   -3.6116 C.2       1 <0>         0.2706
     16 N3         -0.3305   -7.0259   -4.1137 N.2       1 <0>        -0.4565
     17 C9          0.4656   -7.3344   -5.1647 C.ar      1 <0>        -0.1021
     18 C10         1.3874   -6.2818   -5.3089 C.ar      1 <0>         0.3141
     19 N4          2.2866   -6.3378   -6.2830 N.ar      1 <0>        -0.5341
     20 C11         2.3169   -7.3703   -7.1145 C.ar      1 <0>         0.5019
     21 N5          1.4623   -8.3848   -7.0165 N.ar      1 <0>        -0.5697
     22 C12         0.5371   -8.4123   -6.0657 C.ar      1 <0>         0.5154
     23 N6         -0.3489   -9.4714   -5.9722 N.pl3     1 <0>        -0.8135
     24 C13         3.3026   -7.3937   -8.1530 C.1       1 <0>        -0.1121
     25 C14         4.1107   -7.4129   -9.0044 C.1       1 <0>        -0.0784
     26 C15         5.1240   -7.4370  -10.0719 C.3       1 <0>         0.1645
     27 N7          4.9711   -8.6643  -10.8645 N.3       1 <0>        -0.5389
     28 C16         5.2866   -9.8532  -10.0605 C.3       1 <0>         0.0547
     29 C17         5.0392  -11.1113  -10.8963 C.3       1 <0>         0.0568
     30 N8          5.8696  -11.0627  -12.1077 N.3       1 <0>        -0.5472
     31 C18         5.5541   -9.8738  -12.9117 C.3       1 <0>         0.0556
     32 C19         5.8015   -8.6157  -12.0760 C.3       1 <0>         0.0573
     33 C20         5.7167  -12.2900  -12.9004 C.3       1 <0>         0.0247
     34 O3          2.2079   -2.4612   -5.7941 O.3       1 <0>        -0.5311
     35 O4          1.0116   -0.6227   -4.3947 O.3       1 <0>        -0.5360
     36 H4          1.0039    1.9031    0.0027 H         1 <0>         0.0645
     37 H5         -0.5459    1.8868   -0.8726 H         1 <0>         0.0637
     38 H6         -0.5289    1.8773    0.9072 H         1 <0>         0.0792
     39 H7          0.5293   -0.3651    0.8851 H         1 <0>         0.0731
     40 H8         -1.0205   -0.3814    0.0098 H         1 <0>         0.0728
     41 H9          1.0417    0.1622   -1.8418 H         1 <0>         0.3979
     42 H10         2.8552   -4.2328   -4.2545 H         1 <0>         0.1324
     43 H11        -0.4277   -5.3998   -2.7647 H         1 <0>         0.2271
     44 H12        -1.0284   -9.4756   -5.2800 H         1 <0>         0.4213
     45 H13        -0.2903  -10.2095   -6.5988 H         1 <0>         0.4124
     46 H14         4.9922   -6.5687  -10.7175 H         1 <0>         0.1089
     47 H15         6.1195   -7.4124   -9.6286 H         1 <0>         0.0707
     48 H16         6.3326   -9.8190   -9.7558 H         1 <0>         0.0466
     49 H17         4.6502   -9.8734   -9.1758 H         1 <0>         0.0837
     50 H18         5.3002  -11.9934  -10.3116 H         1 <0>         0.0809
     51 H19         3.9873  -11.1596  -11.1781 H         1 <0>         0.0447
     52 H20         6.1905   -9.8536  -13.7964 H         1 <0>         0.0821
     53 H21         4.5081   -9.9080  -13.2165 H         1 <0>         0.0444
     54 H22         5.5406   -7.7335  -12.6606 H         1 <0>         0.0849
     55 H23         6.8534   -8.5674  -11.7941 H         1 <0>         0.0481
     56 H24         4.6738  -12.4041  -13.1959 H         1 <0>         0.0271
     57 H25         6.3420  -12.2276  -13.7910 H         1 <0>         0.0691
     58 H26         6.0209  -13.1490  -12.3023 H         1 <0>         0.0692
     59 H27         1.9048   -1.7181   -6.3335 H         1 <0>         0.3971
     60 H28         0.8031    0.0753   -3.7587 H         1 <0>         0.3843
@<TRIPOS>BOND
     1    1    2 1
     2    1   36 1
     3    1   37 1
     4    1   38 1
     5    2    3 1
     6    2   39 1
     7    2   40 1
     8    3    4 am
     9    3   41 1
    10    4    5 2
    11    4    6 1
    12    6    7 1
    13    6   13 1
    14    6    8 1
    15    8    9 1
    16    8   10 1
    17    8   35 1
    18   10   11 1
    19   10   12 1
    20   10   34 1
    21   12   13 1
    22   12   14 1
    23   12   42 1
    24   14   18 1
    25   14   15 1
    26   15   16 2
    27   15   43 1
    28   16   17 1
    29   17   22 ar
    30   17   18 ar
    31   18   19 ar
    32   19   20 ar
    33   20   21 ar
    34   20   24 1
    35   21   22 ar
    36   22   23 1
    37   23   44 1
    38   23   45 1
    39   24   25 3
    40   25   26 1
    41   26   27 1
    42   26   46 1
    43   26   47 1
    44   27   32 1
    45   27   28 1
    46   28   29 1
    47   28   48 1
    48   28   49 1
    49   29   30 1
    50   29   50 1
    51   29   51 1
    52   30   31 1
    53   30   33 1
    54   31   32 1
    55   31   52 1
    56   31   53 1
    57   32   54 1
    58   32   55 1
    59   33   56 1
    60   33   57 1
    61   33   58 1
    62   34   59 1
    63   35   60 1
