@<TRIPOS>MOLECULE
CHEMBL257757
   35    38     0     0     0
SMALL
USER_CHARGES

@<TRIPOS>ATOM
      1 C1         -0.0167    1.3777    0.0096 C.ar      1 <0>        -0.1108
      2 C2          1.1710    2.0855    0.0021 C.ar      1 <0>        -0.0880
      3 C3          2.3777    1.4116   -0.0130 C.ar      1 <0>        -0.1092
      4 C4          2.3977    0.0294   -0.0210 C.ar      1 <0>        -0.0822
      5 C5          1.2098   -0.6793   -0.0135 C.ar      1 <0>        -0.0392
      6 C6          0.0021   -0.0041    0.0020 C.ar      1 <0>        -0.0994
      7 Cl1         1.2341   -2.4151   -0.0242 Cl        1 <0>        -0.0649
      8 C7          3.6718    2.1839   -0.0212 C.3       1 <0>         0.1852
      9 N1          4.1043    2.4267    1.3572 N.pl3     1 <0>        -0.3795
     10 C8          3.7698    3.5055    2.1219 C.ar      1 <0>         0.3965
     11 C9          4.4030    3.3254    3.3683 C.ar      1 <0>        -0.3144
     12 C10         5.1134    2.1090    3.2991 C.2       1 <0>         0.1199
     13 N2          4.9277    1.5882    2.1192 N.2       1 <0>        -0.2453
     14 C11         4.2204    4.3127    4.3623 C.ar      1 <0>         0.3846
     15 N3          3.4585    5.3674    4.0751 N.ar      1 <0>        -0.5701
     16 C12         2.8830    5.4927    2.8869 C.ar      1 <0>         0.6190
     17 N4          3.0273    4.5928    1.9281 N.ar      1 <0>        -0.5922
     18 N5          2.1013    6.6082    2.6405 N.pl3     1 <0>        -0.8111
     19 C13         4.8561    4.1791    5.6834 C.2       1 <0>        -0.0032
     20 C14         5.3372    5.2003    6.4470 C.2       1 <0>        -0.1290
     21 C15         5.8537    4.6203    7.6196 C.2       1 <0>        -0.2206
     22 C16         5.6661    3.2879    7.5184 C.2       1 <0>        -0.0081
     23 O1          5.0587    3.0260    6.3514 O.3       1 <0>        -0.1611
     24 H1         -0.9592    1.9048    0.0259 H         1 <0>         0.1350
     25 H2          1.1559    3.1654    0.0076 H         1 <0>         0.1340
     26 H3          3.3407   -0.4970   -0.0336 H         1 <0>         0.1371
     27 H4         -0.9257   -0.5568    0.0079 H         1 <0>         0.1355
     28 H5          4.4349    1.6086   -0.5454 H         1 <0>         0.1091
     29 H6          3.5229    3.1370   -0.5286 H         1 <0>         0.1097
     30 H7          5.7079    1.6796    4.0918 H         1 <0>         0.1980
     31 H8          1.9830    7.2796    3.3305 H         1 <0>         0.4192
     32 H9          1.6718    6.7185    1.7778 H         1 <0>         0.4177
     33 H10         5.3247    6.2515    6.1993 H         1 <0>         0.1578
     34 H11         6.3137    5.1429    8.4452 H         1 <0>         0.1572
     35 H12         5.9533    2.5541    8.2569 H         1 <0>         0.2127
@<TRIPOS>BOND
     1    1    6 ar
     2    1    2 ar
     3    1   24 1
     4    2    3 ar
     5    2   25 1
     6    3    4 ar
     7    3    8 1
     8    4    5 ar
     9    4   26 1
    10    5    6 ar
    11    5    7 1
    12    6   27 1
    13    8    9 1
    14    8   28 1
    15    8   29 1
    16    9   13 1
    17    9   10 1
    18   10   17 ar
    19   10   11 ar
    20   11   12 1
    21   11   14 ar
    22   12   13 2
    23   12   30 1
    24   14   15 ar
    25   14   19 1
    26   15   16 ar
    27   16   17 ar
    28   16   18 1
    29   18   31 1
    30   18   32 1
    31   19   23 1
    32   19   20 2
    33   20   21 1
    34   20   33 1
    35   21   22 2
    36   21   34 1
    37   22   23 1
    38   22   35 1
