@<TRIPOS>MOLECULE
CHEMBL189192
   51    55     0     0     0
SMALL
USER_CHARGES

@<TRIPOS>ATOM
      1 C1         -0.0178    1.4608    0.0101 C.3       1 <0>         0.0872
      2 N1          0.0021   -0.0041    0.0020 N.pl3     1 <0>        -0.3396
      3 C2          0.0078   -0.7921   -1.0939 C.2       1 <0>         0.1287
      4 C3          0.0272   -2.0803   -0.6752 C.2       1 <0>        -0.1659
      5 C4          0.0335   -2.0776    0.7234 C.2       1 <0>         0.0072
      6 N2          0.0246   -0.8341    1.1302 N.2       1 <0>        -0.2092
      7 C5          0.0540   -3.2967    1.6091 C.3       1 <0>         0.5612
      8 F1          1.3792   -3.6561    1.8773 F         1 <0>        -0.1593
      9 F2         -0.6040   -3.0116    2.8103 F         1 <0>        -0.1654
     10 F3         -0.5941   -4.3542    0.9620 F         1 <0>        -0.1618
     11 C6          0.0398   -3.3003   -1.5598 C.3       1 <0>         0.1151
     12 N3          1.4287   -3.6782   -1.8530 N.3       1 <0>        -0.5320
     13 C7          2.0961   -2.6468   -2.6584 C.3       1 <0>         0.0362
     14 C8          3.5842   -2.9887   -2.7887 C.3       1 <0>         0.1291
     15 N4          3.7049   -4.3590   -3.3093 N.pl3     1 <0>        -0.5690
     16 C9          2.9528   -5.4282   -2.6352 C.3       1 <0>         0.1116
     17 C10         1.4896   -4.9903   -2.5109 C.3       1 <0>         0.0423
     18 C11         4.4963   -4.6321   -4.3933 C.2       1 <0>         0.6736
     19 N5          4.5804   -5.9234   -4.8553 N.pl3     1 <0>        -0.6625
     20 C12         4.9565   -6.1377   -6.1810 C.2       1 <0>         0.6368
     21 N6          5.7963   -5.1609   -6.6905 N.pl3     1 <0>        -0.4345
     22 C13         5.8791   -3.9255   -6.0818 C.2       1 <0>         0.5173
     23 N7          5.1583   -3.6460   -4.9754 N.2       1 <0>        -0.5472
     24 N8          6.7263   -3.2060   -6.7719 N.2       1 <0>        -0.4995
     25 C14         7.2013   -3.9308   -7.8012 C.2       1 <0>         0.3353
     26 N9          6.6527   -5.1341   -7.7784 N.2       1 <0>        -0.2871
     27 C15         8.1814   -3.4568   -8.8003 C.2       1 <0>         0.0431
     28 C16         8.7565   -2.2252   -8.8319 C.2       1 <0>        -0.1305
     29 C17         9.6198   -2.2089   -9.9453 C.2       1 <0>        -0.2183
     30 C18         9.5300   -3.4185  -10.5323 C.2       1 <0>        -0.0110
     31 O1          8.6646   -4.1718   -9.8347 O.3       1 <0>        -0.1610
     32 N10         4.5552   -7.1634   -6.8767 N.2       1 <0>        -0.6839
     33 Cl1        -0.0075   -0.2519   -2.7436 Cl        1 <0>         0.0207
     34 H1          1.0048    1.8381    0.0023 H         1 <0>         0.0923
     35 H2         -0.5450    1.8219   -0.8730 H         1 <0>         0.0986
     36 H3         -0.5280    1.8123    0.9069 H         1 <0>         0.1053
     37 H4         -0.4610   -4.1236   -1.0504 H         1 <0>         0.1070
     38 H5         -0.4809   -3.0789   -2.4914 H         1 <0>         0.0571
     39 H6          1.6434   -2.6095   -3.6492 H         1 <0>         0.0481
     40 H7          1.9869   -1.6778   -2.1714 H         1 <0>         0.0917
     41 H8          4.0610   -2.2919   -3.4781 H         1 <0>         0.1160
     42 H9          4.0615   -2.9251   -1.8109 H         1 <0>         0.0882
     43 H10         3.0122   -6.3442   -3.2229 H         1 <0>         0.0887
     44 H11         3.3694   -5.5991   -1.6425 H         1 <0>         0.0995
     45 H12         0.9405   -5.7208   -1.9168 H         1 <0>         0.1025
     46 H13         1.0453   -4.9203   -3.5037 H         1 <0>         0.0486
     47 H14         8.5844   -1.4157   -8.1380 H         1 <0>         0.1629
     48 H15        10.2365   -1.3829  -10.2676 H         1 <0>         0.1587
     49 H16        10.0682   -3.7317  -11.4147 H         1 <0>         0.2123
     50 H17         4.8446   -7.2687   -7.7965 H         1 <0>         0.3778
     51 H18         4.3823   -6.6715   -4.2705 H         1 <0>         0.4370
@<TRIPOS>BOND
     1    1    2 1
     2    1   34 1
     3    1   35 1
     4    1   36 1
     5    2    6 1
     6    2    3 1
     7    3    4 2
     8    3   33 1
     9    4    5 1
    10    4   11 1
    11    5    6 2
    12    5    7 1
    13    7    8 1
    14    7    9 1
    15    7   10 1
    16   11   12 1
    17   11   37 1
    18   11   38 1
    19   12   17 1
    20   12   13 1
    21   13   14 1
    22   13   39 1
    23   13   40 1
    24   14   15 1
    25   14   41 1
    26   14   42 1
    27   15   16 1
    28   15   18 1
    29   16   17 1
    30   16   43 1
    31   16   44 1
    32   17   45 1
    33   17   46 1
    34   18   23 2
    35   18   19 1
    36   19   20 1
    37   19   51 1
    38   20   21 1
    39   20   32 2
    40   21   26 1
    41   21   22 1
    42   22   23 1
    43   22   24 2
    44   24   25 1
    45   25   26 2
    46   25   27 1
    47   27   31 1
    48   27   28 2
    49   28   29 1
    50   28   47 1
    51   29   30 2
    52   29   48 1
    53   30   31 1
    54   30   49 1
    55   32   50 1
