@<TRIPOS>MOLECULE
CHEMBL610680
   53    56     0     0     0
SMALL
USER_CHARGES

@<TRIPOS>ATOM
      1 C1         -0.0187    1.5258    0.0104 C.3       1 <0>        -0.1680
      2 C2          0.0021   -0.0041    0.0020 C.3       1 <0>         0.1135
      3 N1          0.6878   -0.4765   -1.2033 N.am      1 <0>        -0.7270
      4 C3          0.8268   -1.7986   -1.4250 C.2       1 <0>         0.5160
      5 O1          0.3843   -2.5972   -0.6267 O.2       1 <0>        -0.5035
      6 C4          1.5322   -2.2846   -2.6649 C.3       1 <0>         0.0317
      7 H1          2.5323   -1.8560   -2.7290 H         1 <0>         0.1228
      8 C5          0.7085   -1.9402   -3.9319 C.3       1 <0>         0.0509
      9 H2         -0.3595   -2.0480   -3.7427 H         1 <0>         0.0953
     10 C6          1.2015   -3.0074   -4.9392 C.3       1 <0>         0.0827
     11 H3          0.3680   -3.3897   -5.5285 H         1 <0>         0.0901
     12 C7          1.7901   -4.1212   -4.0517 C.3       1 <0>         0.3135
     13 O2          1.5952   -3.7270   -2.6817 O.3       1 <0>        -0.3267
     14 N2          1.0956   -5.3847   -4.3118 N.pl3     1 <0>        -0.4762
     15 C8          0.0373   -5.8823   -3.6116 C.2       1 <0>         0.2834
     16 N3         -0.3305   -7.0254   -4.1133 N.2       1 <0>        -0.4643
     17 C9          0.4660   -7.3338   -5.1647 C.ar      1 <0>        -0.0825
     18 C10         1.3875   -6.2812   -5.3085 C.ar      1 <0>         0.3054
     19 N4          2.2866   -6.3396   -6.2843 N.ar      1 <0>        -0.5315
     20 C11         2.3155   -7.3655   -7.1091 C.ar      1 <0>         0.3512
     21 N5          1.4690   -8.3743   -7.0152 N.ar      1 <0>        -0.5174
     22 C12         0.5405   -8.4078   -6.0657 C.ar      1 <0>         0.4774
     23 N6         -0.3462   -9.4731   -5.9763 N.am      1 <0>        -0.6462
     24 C13        -0.2606  -10.4962   -6.8495 C.2       1 <0>         0.5068
     25 O3          0.5905  -10.4865   -7.7133 O.2       1 <0>        -0.4462
     26 C14        -1.2227  -11.6521   -6.7525 C.3       1 <0>        -0.1058
     27 C15        -0.9156  -12.6535   -7.8360 C.ar      1 <0>        -0.0594
     28 C16        -1.6007  -12.6056   -9.0357 C.ar      1 <0>        -0.0788
     29 C17        -1.3196  -13.5236  -10.0298 C.ar      1 <0>        -0.1034
     30 C18        -0.3518  -14.4912   -9.8248 C.ar      1 <0>        -0.0204
     31 C19         0.3343  -14.5394   -8.6248 C.ar      1 <0>        -0.1011
     32 C20         0.0558  -13.6171   -7.6319 C.ar      1 <0>        -0.0071
     33 Cl1         0.9207  -13.6730   -6.1277 Cl        1 <0>        -0.0524
     34 Cl2         0.0008  -15.6447  -11.0733 Cl        1 <0>        -0.0549
     35 O4          2.2079   -2.4612   -5.7941 O.3       1 <0>        -0.5313
     36 O5          1.0116   -0.6227   -4.3947 O.3       1 <0>        -0.5359
     37 H4          1.0039    1.9031    0.0027 H         1 <0>         0.0646
     38 H5         -0.5459    1.8868   -0.8726 H         1 <0>         0.0637
     39 H6         -0.5289    1.8773    0.9072 H         1 <0>         0.0794
     40 H7          0.5293   -0.3651    0.8851 H         1 <0>         0.0732
     41 H8         -1.0205   -0.3814    0.0098 H         1 <0>         0.0729
     42 H9          1.0417    0.1622   -1.8418 H         1 <0>         0.3980
     43 H10         2.8552   -4.2328   -4.2545 H         1 <0>         0.1333
     44 H11        -0.4276   -5.3990   -2.7650 H         1 <0>         0.2287
     45 H12         3.0594   -7.3822   -7.8919 H         1 <0>         0.2113
     46 H13        -1.0270   -9.4808   -5.2854 H         1 <0>         0.4276
     47 H14        -1.1208  -12.1288   -5.7776 H         1 <0>         0.1157
     48 H15        -2.2426  -11.2871   -6.8736 H         1 <0>         0.1172
     49 H16        -2.3561  -11.8506   -9.1962 H         1 <0>         0.1426
     50 H17        -1.8556  -13.4861  -10.9666 H         1 <0>         0.1426
     51 H18         1.0897  -15.2944   -8.4644 H         1 <0>         0.1458
     52 H19         1.9048   -1.7181   -6.3335 H         1 <0>         0.3977
     53 H20         0.8031    0.0753   -3.7587 H         1 <0>         0.3848
@<TRIPOS>BOND
     1    1    2 1
     2    1   37 1
     3    1   38 1
     4    1   39 1
     5    2    3 1
     6    2   40 1
     7    2   41 1
     8    3    4 am
     9    3   42 1
    10    4    5 2
    11    4    6 1
    12    6    7 1
    13    6   13 1
    14    6    8 1
    15    8    9 1
    16    8   10 1
    17    8   36 1
    18   10   11 1
    19   10   12 1
    20   10   35 1
    21   12   13 1
    22   12   14 1
    23   12   43 1
    24   14   18 1
    25   14   15 1
    26   15   16 2
    27   15   44 1
    28   16   17 1
    29   17   22 ar
    30   17   18 ar
    31   18   19 ar
    32   19   20 ar
    33   20   21 ar
    34   20   45 1
    35   21   22 ar
    36   22   23 1
    37   23   24 am
    38   23   46 1
    39   24   25 2
    40   24   26 1
    41   26   27 1
    42   26   47 1
    43   26   48 1
    44   27   32 ar
    45   27   28 ar
    46   28   29 ar
    47   28   49 1
    48   29   30 ar
    49   29   50 1
    50   30   31 ar
    51   30   34 1
    52   31   32 ar
    53   31   51 1
    54   32   33 1
    55   35   52 1
    56   36   53 1
