@<TRIPOS>MOLECULE
CHEMBL373700
   60    65     0     0     0
SMALL
USER_CHARGES

@<TRIPOS>ATOM
      1 C1         -0.0167    1.3779    0.0096 C.ar      1 <0>        -0.0438
      2 C2          1.1694    2.0866    0.0021 C.ar      1 <0>        -0.1538
      3 C3          2.3810    1.4110   -0.0131 C.ar      1 <0>         0.1479
      4 C4          2.3995    0.0240   -0.0208 C.ar      1 <0>        -0.2498
      5 C5          1.2099   -0.6821   -0.0132 C.ar      1 <0>         0.1408
      6 C6          0.0021   -0.0041    0.0020 C.ar      1 <0>        -0.1811
      7 F1          1.2262   -2.0329   -0.0206 F         1 <0>        -0.1322
      8 O1          3.5481    2.1071   -0.0210 O.3       1 <0>        -0.2950
      9 C7          4.7574    1.3459   -0.0366 C.3       1 <0>         0.0455
     10 C8          5.9574    2.2950   -0.0435 C.3       1 <0>        -0.1102
     11 H1          5.8705    2.9879   -0.8804 H         1 <0>         0.1356
     12 C9          5.9989    3.0804    1.2717 C.3       1 <0>        -0.1284
     13 C10         6.1713    2.0914    2.4255 C.3       1 <0>        -0.1435
     14 C11         7.4443    1.2640    2.2168 C.3       1 <0>         0.0152
     15 H2          8.3124    1.9231    2.2189 H         1 <0>         0.1488
     16 C12         7.5527    0.2675    3.3791 C.3       1 <0>         0.1088
     17 N1          8.6725   -0.6486    3.1263 N.pl3     1 <0>        -0.5973
     18 C13         8.7264   -1.3173    1.8161 C.3       1 <0>         0.0884
     19 C14         8.5993   -0.2442    0.7326 C.3       1 <0>        -0.0216
     20 N2          7.3754    0.5465    0.9395 N.4       1 <0>        -0.3845
     21 C15         7.2481    1.4880   -0.1783 C.3       1 <0>        -0.0001
     22 C16         9.6334   -0.8725    4.0764 C.2       1 <0>         0.6716
     23 N3         10.6671   -1.7332    3.7963 N.pl3     1 <0>        -0.6593
     24 C17        11.8588   -1.6038    4.5092 C.2       1 <0>         0.6287
     25 N4         11.6933   -1.1101    5.7929 N.pl3     1 <0>        -0.4288
     26 C18        10.5407   -0.4345    6.1373 C.2       1 <0>         0.4988
     27 N5          9.5483   -0.2511    5.2409 N.2       1 <0>        -0.5255
     28 N6         10.6582   -0.0746    7.3896 N.2       1 <0>        -0.4810
     29 C19        11.8407   -0.4977    7.8723 C.2       1 <0>         0.3441
     30 N7         12.4982   -1.1375    6.9196 N.2       1 <0>        -0.2731
     31 C20        12.3285   -0.2810    9.2503 C.2       1 <0>         0.0279
     32 C21        11.6609    0.3697   10.2399 C.2       1 <0>        -0.1213
     33 C22        12.4918    0.3403   11.3774 C.2       1 <0>        -0.2193
     34 C23        13.6138   -0.3201   11.0297 C.2       1 <0>         0.0001
     35 O2         13.5093   -0.6990    9.7457 O.3       1 <0>        -0.1602
     36 N8         13.0214   -1.9190    4.0134 N.2       1 <0>        -0.6685
     37 H3         -0.9595    1.9044    0.0260 H         1 <0>         0.1477
     38 H4          1.1533    3.1665    0.0077 H         1 <0>         0.1424
     39 H5          3.3416   -0.5040   -0.0330 H         1 <0>         0.1328
     40 H6         -0.9262   -0.5561    0.0079 H         1 <0>         0.1436
     41 H7          4.7998    0.7130    0.8498 H         1 <0>         0.0575
     42 H8          4.7825    0.7220   -0.9300 H         1 <0>         0.0775
     43 H9          6.8387    3.7751    1.2567 H         1 <0>         0.0903
     44 H10         5.0670    3.6315    1.3983 H         1 <0>         0.1079
     45 H11         6.2457    2.6398    3.3645 H         1 <0>         0.1236
     46 H12         5.3090    1.4258    2.4637 H         1 <0>         0.0922
     47 H13         7.7281    0.8095    4.3083 H         1 <0>         0.1546
     48 H14         6.6267   -0.3022    3.4579 H         1 <0>         0.1043
     49 H15         9.6770   -1.8396    1.7078 H         1 <0>         0.1292
     50 H16         7.9034   -2.0269    1.7304 H         1 <0>         0.1141
     51 H17         9.4639    0.4182    0.7761 H         1 <0>         0.1405
     52 H18         8.5600   -0.7215   -0.2466 H         1 <0>         0.1543
     53 H19         7.2340    0.9391   -1.1199 H         1 <0>         0.1401
     54 H20         8.1007    2.1671   -0.1719 H         1 <0>         0.1418
     55 H21        10.6829    0.8223   10.1679 H         1 <0>         0.1635
     56 H22        12.2713    0.7666   12.3449 H         1 <0>         0.1618
     57 H23        14.4555   -0.5160   11.6775 H         1 <0>         0.2159
     58 H24        13.8227   -1.8110    4.5493 H         1 <0>         0.3851
     59 H25        10.5698   -2.4179    3.1161 H         1 <0>         0.4370
     60 H26         6.5775   -0.0711    0.9428 H         1 <0>         0.4186
@<TRIPOS>BOND
     1    1    6 ar
     2    1    2 ar
     3    1   37 1
     4    2    3 ar
     5    2   38 1
     6    3    4 ar
     7    3    8 1
     8    4    5 ar
     9    4   39 1
    10    5    6 ar
    11    5    7 1
    12    6   40 1
    13    8    9 1
    14    9   10 1
    15    9   41 1
    16    9   42 1
    17   10   11 1
    18   10   21 1
    19   10   12 1
    20   12   13 1
    21   12   43 1
    22   12   44 1
    23   13   14 1
    24   13   45 1
    25   13   46 1
    26   14   15 1
    27   14   20 1
    28   14   16 1
    29   16   17 1
    30   16   47 1
    31   16   48 1
    32   17   18 1
    33   17   22 1
    34   18   19 1
    35   18   49 1
    36   18   50 1
    37   19   20 1
    38   19   51 1
    39   19   52 1
    40   20   21 1
    41   20   60 1
    42   21   53 1
    43   21   54 1
    44   22   27 2
    45   22   23 1
    46   23   24 1
    47   23   59 1
    48   24   25 1
    49   24   36 2
    50   25   30 1
    51   25   26 1
    52   26   27 1
    53   26   28 2
    54   28   29 1
    55   29   30 2
    56   29   31 1
    57   31   35 1
    58   31   32 2
    59   32   33 1
    60   32   55 1
    61   33   34 2
    62   33   56 1
    63   34   35 1
    64   34   57 1
    65   36   58 1
