@<TRIPOS>MOLECULE
CHEMBL1087701
   51    55     0     0     0
SMALL
USER_CHARGES

@<TRIPOS>ATOM
      1 C1         -0.0167    1.3793    0.0096 C.ar      1 <0>        -0.0830
      2 C2          1.1685    2.0929    0.0021 C.ar      1 <0>        -0.1315
      3 C3          2.3774    1.4279   -0.0130 C.ar      1 <0>        -0.0619
      4 C4          2.4029    0.0333   -0.0207 C.ar      1 <0>        -0.0965
      5 C5          1.2046   -0.6805   -0.0131 C.ar      1 <0>        -0.0587
      6 C6          0.0021   -0.0041    0.0020 C.ar      1 <0>        -0.1255
      7 C7          3.6972   -0.6866   -0.0375 C.ar      1 <0>         0.3588
      8 C8          3.8485   -1.9053    0.6416 C.ar      1 <0>        -0.3353
      9 C9          5.0995   -2.5526    0.5963 C.ar      1 <0>         0.2803
     10 N1          6.0850   -1.9878   -0.0854 N.ar      1 <0>        -0.5863
     11 C10         5.9016   -0.8324   -0.7162 C.ar      1 <0>         0.6082
     12 N2          4.7422   -0.1938   -0.7026 N.ar      1 <0>        -0.5583
     13 N3          6.9560   -0.2811   -1.4137 N.pl3     1 <0>        -0.8007
     14 C11         5.0091   -3.8087    1.3828 C.ar      1 <0>        -0.0126
     15 C12         5.9398   -4.8012    1.6568 C.ar      1 <0>        -0.1138
     16 C13         5.5832   -5.8911    2.4363 C.ar      1 <0>        -0.0726
     17 C14         4.3040   -5.9981    2.9448 C.ar      1 <0>        -0.0946
     18 C15         3.3631   -5.0152    2.6796 C.ar      1 <0>        -0.0219
     19 C16         3.7079   -3.9189    1.9009 C.ar      1 <0>        -0.1345
     20 C17         2.9384   -2.7304    1.4536 C.2       1 <0>         0.4549
     21 O1          1.7764   -2.4848    1.7094 O.2       1 <0>        -0.3894
     22 C18         7.3386   -4.6945    1.1063 C.3       1 <0>         0.0421
     23 N4          8.1250   -3.7772    1.9419 N.4       1 <0>        -0.3801
     24 C19         8.2704   -4.3462    3.2872 C.3       1 <0>        -0.0135
     25 C20         9.0190   -3.3585    4.1846 C.3       1 <0>        -0.1455
     26 C21        10.4044   -3.0869    3.5911 C.3       1 <0>        -0.1383
     27 C22        10.2425   -2.5638    2.1609 C.3       1 <0>        -0.1455
     28 C23         9.4485   -3.5809    1.3384 C.3       1 <0>        -0.0053
     29 H1         -0.9604    1.9042    0.0260 H         1 <0>         0.1313
     30 H2          1.1475    3.1726    0.0078 H         1 <0>         0.1323
     31 H3          3.3020    1.9860   -0.0192 H         1 <0>         0.1300
     32 H4          1.2180   -1.7604   -0.0194 H         1 <0>         0.1327
     33 H5         -0.9264   -0.5556    0.0083 H         1 <0>         0.1325
     34 H6          7.8124   -0.7360   -1.4376 H         1 <0>         0.4174
     35 H7          6.8412    0.5615   -1.8803 H         1 <0>         0.4270
     36 H8          6.3105   -6.6613    2.6467 H         1 <0>         0.1492
     37 H9          4.0354   -6.8506    3.5509 H         1 <0>         0.1546
     38 H10         2.3631   -5.1023    3.0782 H         1 <0>         0.1536
     39 H11         7.8060   -5.6792    1.1086 H         1 <0>         0.1411
     40 H12         7.2994   -4.3132    0.0860 H         1 <0>         0.1450
     41 H13         7.2837   -4.5419    3.7070 H         1 <0>         0.1272
     42 H14         8.8307   -5.2793    3.2279 H         1 <0>         0.1315
     43 H15         8.4594   -2.4250    4.2448 H         1 <0>         0.0843
     44 H16         9.1276   -3.7835    5.1825 H         1 <0>         0.1129
     45 H17        10.9201   -2.3410    4.1958 H         1 <0>         0.0938
     46 H18        10.9828   -4.0106    3.5781 H         1 <0>         0.0833
     47 H19         9.7083   -1.6139    2.1791 H         1 <0>         0.0849
     48 H20        11.2255   -2.4208    1.7122 H         1 <0>         0.1131
     49 H21         9.9837   -4.5303    1.3207 H         1 <0>         0.1301
     50 H22         9.3316   -3.2117    0.3196 H         1 <0>         0.1310
     51 H23         7.6497   -2.8893    2.0041 H         1 <0>         0.4217
@<TRIPOS>BOND
     1    1    6 ar
     2    1    2 ar
     3    1   29 1
     4    2    3 ar
     5    2   30 1
     6    3    4 ar
     7    3   31 1
     8    4    5 ar
     9    4    7 1
    10    5    6 ar
    11    5   32 1
    12    6   33 1
    13    7   12 ar
    14    7    8 ar
    15    8   20 1
    16    8    9 ar
    17    9   10 ar
    18    9   14 1
    19   10   11 ar
    20   11   12 ar
    21   11   13 1
    22   13   34 1
    23   13   35 1
    24   14   19 ar
    25   14   15 ar
    26   15   16 ar
    27   15   22 1
    28   16   17 ar
    29   16   36 1
    30   17   18 ar
    31   17   37 1
    32   18   19 ar
    33   18   38 1
    34   19   20 1
    35   20   21 2
    36   22   23 1
    37   22   39 1
    38   22   40 1
    39   23   28 1
    40   23   24 1
    41   23   51 1
    42   24   25 1
    43   24   41 1
    44   24   42 1
    45   25   26 1
    46   25   43 1
    47   25   44 1
    48   26   27 1
    49   26   45 1
    50   26   46 1
    51   27   28 1
    52   27   47 1
    53   27   48 1
    54   28   49 1
    55   28   50 1
