@<TRIPOS>MOLECULE
CHEMBL106265
   34    36     0     0     0
SMALL
USER_CHARGES

@<TRIPOS>ATOM
      1 C1         -0.0127    1.0858    0.0080 C.3       1 <0>         0.0884
      2 N1         -0.7213    1.5711   -1.1789 N.am      1 <0>        -0.5104
      3 C2         -2.0896    1.7829   -1.1291 C.2       1 <0>         0.3237
      4 C3         -2.7385    2.2438   -2.2678 C.2       1 <0>        -0.1542
      5 C4         -1.9871    2.4823   -3.4387 C.2       1 <0>         0.5938
      6 O1         -2.5331    2.8869   -4.4494 O.2       1 <0>        -0.5126
      7 N2         -0.6567    2.2572   -3.4249 N.am      1 <0>        -0.5512
      8 C5         -0.0409    1.8160   -2.3146 C.2       1 <0>         0.7071
      9 O2          1.1605    1.6290   -2.3377 O.2       1 <0>        -0.5309
     10 C6          0.1291    2.5026   -4.6367 C.3       1 <0>         0.0833
     11 N3         -4.0723    2.3610   -1.9316 N.pl3     1 <0>        -0.5128
     12 C7         -4.1887    1.9809   -0.6443 C.2       1 <0>         0.3091
     13 N4         -3.0147    1.6409   -0.1765 N.2       1 <0>        -0.4922
     14 H1         -4.7896    2.6601   -2.5121 H         1 <0>         0.4352
     15 C8         -5.4760    1.9518    0.1386 C.3       1 <0>        -0.0170
     16 C9         -6.6565    1.6202   -0.7975 C.3       1 <0>        -0.1247
     17 C10        -7.8209    2.4910   -0.2636 C.3       1 <0>        -0.1244
     18 C11        -7.1081    3.8065    0.1369 C.3       1 <0>        -0.1290
     19 C12        -5.7632    3.3419    0.7328 C.3       1 <0>        -0.1171
     20 H2          0.0021   -0.0041    0.0020 H         1 <0>         0.0741
     21 H3          1.0099    1.4631    0.0003 H         1 <0>         0.0942
     22 H4         -0.5229    1.4373    0.9048 H         1 <0>         0.0923
     23 H5          0.4850    3.5329   -4.6365 H         1 <0>         0.0771
     24 H6          0.9816    1.8238   -4.6606 H         1 <0>         0.0971
     25 H7         -0.4945    2.3338   -5.5146 H         1 <0>         0.0952
     26 H8         -5.4112    1.2112    0.9358 H         1 <0>         0.1182
     27 H9         -6.4165    1.8927   -1.8253 H         1 <0>         0.0624
     28 H10        -6.9100    0.5622   -0.7317 H         1 <0>         0.0826
     29 H11        -8.5572    2.6734   -1.0463 H         1 <0>         0.0739
     30 H12        -8.2860    2.0238    0.6045 H         1 <0>         0.0763
     31 H13        -6.9411    4.4321   -0.7400 H         1 <0>         0.0666
     32 H14        -7.6913    4.3440    0.8846 H         1 <0>         0.0745
     33 H15        -5.8387    3.2757    1.8181 H         1 <0>         0.0826
     34 H16        -4.9715    4.0376    0.4548 H         1 <0>         0.0685
@<TRIPOS>BOND
     1    1   20 1
     2    1   21 1
     3    1   22 1
     4    1    2 1
     5    2    3 1
     6    2    8 am
     7    3   13 1
     8    3    4 2
     9    4    5 1
    10    4   11 1
    11    5    7 am
    12    5    6 2
    13    7    8 am
    14    7   10 1
    15    8    9 2
    16   10   23 1
    17   10   24 1
    18   10   25 1
    19   11   14 1
    20   11   12 1
    21   12   15 1
    22   12   13 2
    23   15   19 1
    24   15   16 1
    25   15   26 1
    26   16   17 1
    27   16   27 1
    28   16   28 1
    29   17   18 1
    30   17   29 1
    31   17   30 1
    32   18   19 1
    33   18   31 1
    34   18   32 1
    35   19   33 1
    36   19   34 1
