@<TRIPOS>MOLECULE
CHEMBL605256
   53    57     0     0     0
SMALL
USER_CHARGES

@<TRIPOS>ATOM
      1 C1         -0.0165    1.3620    0.0095 C.ar      1 <0>        -0.1445
      2 C2          1.1697    2.0834    0.0021 C.ar      1 <0>        -0.0981
      3 C3          2.3856    1.4362   -0.0134 C.ar      1 <0>        -0.1301
      4 C4          2.4281    0.0456   -0.0212 C.ar      1 <0>         0.0947
      5 C5          1.2234   -0.6807   -0.0132 C.ar      1 <0>        -0.0998
      6 C6          0.0021   -0.0041    0.0020 C.ar      1 <0>        -0.0710
      7 C7          1.6036   -2.0953   -0.0245 C.2       1 <0>        -0.1723
      8 C8          2.9451   -2.1410   -0.0380 C.2       1 <0>         0.0643
      9 N1          3.4551   -0.8713   -0.0363 N.pl3     1 <0>        -0.5943
     10 H1          4.3995   -0.6501   -0.0442 H         1 <0>         0.4173
     11 C9          0.6664   -3.2754   -0.0210 C.3       1 <0>        -0.0411
     12 C10         0.2361   -3.5891   -1.4554 C.3       1 <0>         0.0838
     13 O1         -0.6526   -4.7082   -1.4521 O.3       1 <0>        -0.2867
     14 C11        -1.1299   -5.1182   -2.6522 C.ar      1 <0>         0.5692
     15 N2         -0.7489   -4.4736   -3.7460 N.ar      1 <0>        -0.6298
     16 C12        -1.1887   -4.8369   -4.9457 C.ar      1 <0>         0.5416
     17 C13        -2.0727   -5.9261   -5.0356 C.ar      1 <0>        -0.1314
     18 C14        -2.4479   -6.5779   -3.8496 C.ar      1 <0>         0.3417
     19 N3         -1.9544   -6.1498   -2.6915 N.ar      1 <0>        -0.5689
     20 N4         -3.3011   -7.5847   -4.2243 N.pl3     1 <0>        -0.4601
     21 C15        -3.4261   -7.5306   -5.5817 C.2       1 <0>         0.2831
     22 N5         -2.7047   -6.5571   -6.0555 N.2       1 <0>        -0.4616
     23 C16        -3.9571   -8.5427   -3.3309 C.3       1 <0>         0.3168
     24 C17        -5.3015   -7.9672   -2.8190 C.3       1 <0>         0.0749
     25 H2         -5.1543   -7.3600   -1.9258 H         1 <0>         0.0984
     26 C18        -6.0739   -9.2730   -2.4872 C.3       1 <0>         0.0486
     27 H3         -5.8152   -9.6345   -1.4919 H         1 <0>         0.0916
     28 C19        -5.5612  -10.2421   -3.5741 C.3       1 <0>         0.0599
     29 H4         -6.2771  -10.2896   -4.3946 H         1 <0>         0.1080
     30 O2         -4.3091   -9.7351   -4.0504 O.3       1 <0>        -0.3496
     31 C20        -5.3648  -11.6364   -2.9755 C.3       1 <0>         0.0646
     32 O3         -5.0027  -12.5525   -4.0107 O.3       1 <0>        -0.5615
     33 O4         -7.4841   -9.0731   -2.6025 O.3       1 <0>        -0.5428
     34 O5         -5.9650   -7.2211   -3.8414 O.3       1 <0>        -0.5335
     35 N6         -0.7859   -4.1576   -6.0818 N.pl3     1 <0>        -0.8130
     36 H5         -0.9613    1.8849    0.0259 H         1 <0>         0.1226
     37 H6          1.1388    3.1630    0.0081 H         1 <0>         0.1253
     38 H7          3.3028    2.0064   -0.0198 H         1 <0>         0.1198
     39 H8         -0.9246   -0.5587    0.0082 H         1 <0>         0.1212
     40 H9          3.5346   -3.0459   -0.0490 H         1 <0>         0.1718
     41 H10         1.1742   -4.1414    0.4036 H         1 <0>         0.0817
     42 H11        -0.2127   -3.0396    0.5787 H         1 <0>         0.0820
     43 H12        -0.2717   -2.7231   -1.8800 H         1 <0>         0.0716
     44 H13         1.1152   -3.8250   -2.0551 H         1 <0>         0.0703
     45 H14        -4.0339   -8.1974   -6.1752 H         1 <0>         0.2202
     46 H15        -3.3041   -8.7855   -2.4926 H         1 <0>         0.1278
     47 H16        -4.5730  -11.6023   -2.2272 H         1 <0>         0.0556
     48 H17        -6.2929  -11.9650   -2.5077 H         1 <0>         0.0613
     49 H18        -4.8619  -13.4583   -3.7028 H         1 <0>         0.3841
     50 H19        -8.0104   -9.8600   -2.4051 H         1 <0>         0.3904
     51 H20        -6.8109   -6.8422   -3.5658 H         1 <0>         0.3934
     52 H21        -0.1758   -3.4072   -6.0075 H         1 <0>         0.4105
     53 H22        -1.1136   -4.4319   -6.9526 H         1 <0>         0.4218
@<TRIPOS>BOND
     1    1    6 ar
     2    1    2 ar
     3    1   36 1
     4    2    3 ar
     5    2   37 1
     6    3    4 ar
     7    3   38 1
     8    4    9 1
     9    4    5 ar
    10    5    6 ar
    11    5    7 1
    12    6   39 1
    13    7    8 2
    14    7   11 1
    15    8    9 1
    16    8   40 1
    17    9   10 1
    18   11   12 1
    19   11   41 1
    20   11   42 1
    21   12   13 1
    22   12   43 1
    23   12   44 1
    24   13   14 1
    25   14   19 ar
    26   14   15 ar
    27   15   16 ar
    28   16   17 ar
    29   16   35 1
    30   17   22 1
    31   17   18 ar
    32   18   19 ar
    33   18   20 1
    34   20   21 1
    35   20   23 1
    36   21   22 2
    37   21   45 1
    38   23   30 1
    39   23   24 1
    40   23   46 1
    41   24   25 1
    42   24   26 1
    43   24   34 1
    44   26   27 1
    45   26   28 1
    46   26   33 1
    47   28   29 1
    48   28   30 1
    49   28   31 1
    50   31   32 1
    51   31   47 1
    52   31   48 1
    53   32   49 1
    54   33   50 1
    55   34   51 1
    56   35   52 1
    57   35   53 1
