@<TRIPOS>MOLECULE
CHEMBL175564
   51    55     0     0     0
SMALL
USER_CHARGES

@<TRIPOS>ATOM
      1 C1         -1.0232    0.9678   -0.0586 C.ar      1 <0>        -0.0670
      2 C2          0.0178    1.8840   -0.0598 C.ar      1 <0>        -0.1349
      3 C3          1.3205    1.4230   -0.0544 C.ar      1 <0>         0.1115
      4 N1          1.5784    0.1296   -0.0485 N.ar      1 <0>        -0.4668
      5 C4          0.6141   -0.7697   -0.0472 C.ar      1 <0>         0.0549
      6 C5         -0.7130   -0.3833   -0.0519 C.ar      1 <0>        -0.1435
      7 C6          0.9630   -2.2357   -0.0409 C.3       1 <0>         0.0427
      8 N2          1.1968   -2.6893   -1.4184 N.4       1 <0>        -0.3794
      9 C7         -0.0594   -2.5970   -2.1926 C.3       1 <0>        -0.0125
     10 C8         -0.0300   -3.8209   -3.1418 C.3       1 <0>        -0.1392
     11 C9          0.6193   -4.9023   -2.2386 C.3       1 <0>        -0.1415
     12 C10         1.6404   -4.0954   -1.4093 C.3       1 <0>         0.0091
     13 H1          2.6297   -4.1751   -1.8598 H         1 <0>         0.1515
     14 C11         1.6754   -4.6208    0.0272 C.3       1 <0>         0.1145
     15 N3          2.1782   -5.9968    0.0318 N.pl3     1 <0>        -0.6882
     16 C12         2.2018   -6.7135    1.1989 C.2       1 <0>         0.6724
     17 N4          2.6817   -8.0009    1.1869 N.pl3     1 <0>        -0.6567
     18 C13         3.1587   -8.5494    2.3771 C.2       1 <0>         0.6288
     19 N5          2.5433   -8.0472    3.5120 N.pl3     1 <0>        -0.4288
     20 C14         1.8611   -6.8489    3.4634 C.2       1 <0>         0.5017
     21 N6          1.7671   -6.1489    2.3132 N.2       1 <0>        -0.5367
     22 N7          1.3978   -6.6142    4.6641 N.2       1 <0>        -0.4874
     23 C15         1.7478   -7.6187    5.4880 C.2       1 <0>         0.3408
     24 N8          2.4487   -8.5140    4.8125 N.2       1 <0>        -0.2745
     25 C16         1.4036   -7.7074    6.9223 C.2       1 <0>         0.0317
     26 C17         0.6797   -6.7974    7.6269 C.2       1 <0>        -0.1245
     27 C18         0.5961   -7.2803    8.9479 C.2       1 <0>        -0.2197
     28 C19         1.2660   -8.4490    8.9841 C.2       1 <0>        -0.0013
     29 O1          1.7475   -8.7068    7.7574 O.3       1 <0>        -0.1598
     30 N9          4.0968   -9.4522    2.4178 N.2       1 <0>        -0.6678
     31 H2         -2.0511    1.2991   -0.0584 H         1 <0>         0.1498
     32 H3         -0.1870    2.9443   -0.0653 H         1 <0>         0.1510
     33 H4          2.1368    2.1301   -0.0553 H         1 <0>         0.1717
     34 H5         -1.4984   -1.1247   -0.0504 H         1 <0>         0.1433
     35 H6          1.8648   -2.3921    0.5510 H         1 <0>         0.1528
     36 H7          0.1401   -2.8032    0.3938 H         1 <0>         0.1495
     37 H8         -0.9205   -2.6538   -1.5267 H         1 <0>         0.1346
     38 H9         -0.0837   -1.6714   -2.7676 H         1 <0>         0.1354
     39 H10        -1.0386   -4.1116   -3.4354 H         1 <0>         0.1211
     40 H11         0.5876   -3.6211   -4.0174 H         1 <0>         0.1017
     41 H12        -0.1268   -5.3617   -1.5903 H         1 <0>         0.1062
     42 H13         1.1236   -5.6567   -2.8426 H         1 <0>         0.1175
     43 H14         2.3323   -3.9919    0.6282 H         1 <0>         0.1050
     44 H15         0.6694   -4.6002    0.4463 H         1 <0>         0.1089
     45 H16         2.4944   -6.4004   -0.7916 H         1 <0>         0.4243
     46 H17         0.2520   -5.8812    7.2475 H         1 <0>         0.1624
     47 H18         0.0909   -6.8038    9.7750 H         1 <0>         0.1610
     48 H19         1.3909   -9.0765    9.8542 H         1 <0>         0.2153
     49 H20         4.3951   -9.8036    3.2713 H         1 <0>         0.3836
     50 H21         1.9031   -2.1132   -1.8512 H         1 <0>         0.4344
     51 H22         2.6883   -8.5184    0.3665 H         1 <0>         0.4412
@<TRIPOS>BOND
     1    1    6 ar
     2    1    2 ar
     3    1   31 1
     4    2    3 ar
     5    2   32 1
     6    3    4 ar
     7    3   33 1
     8    4    5 ar
     9    5    6 ar
    10    5    7 1
    11    6   34 1
    12    7    8 1
    13    7   35 1
    14    7   36 1
    15    8   12 1
    16    8    9 1
    17    8   50 1
    18    9   10 1
    19    9   37 1
    20    9   38 1
    21   10   11 1
    22   10   39 1
    23   10   40 1
    24   11   12 1
    25   11   41 1
    26   11   42 1
    27   12   13 1
    28   12   14 1
    29   14   15 1
    30   14   43 1
    31   14   44 1
    32   15   16 1
    33   15   45 1
    34   16   21 2
    35   16   17 1
    36   17   18 1
    37   17   51 1
    38   18   19 1
    39   18   30 2
    40   19   24 1
    41   19   20 1
    42   20   21 1
    43   20   22 2
    44   22   23 1
    45   23   24 2
    46   23   25 1
    47   25   29 1
    48   25   26 2
    49   26   27 1
    50   26   46 1
    51   27   28 2
    52   27   47 1
    53   28   29 1
    54   28   48 1
    55   30   49 1
