@<TRIPOS>MOLECULE
CHEMBL572600
   52    56     0     0     0
SMALL
USER_CHARGES

@<TRIPOS>ATOM
      1 C1         -0.0187    1.5258    0.0104 C.3       1 <0>        -0.1548
      2 C2          0.0021   -0.0041    0.0020 C.3       1 <0>        -0.0938
      3 C3          0.7421   -0.5109    1.2415 C.3       1 <0>        -0.1485
      4 C4         -1.4333   -0.5336    0.0129 C.3       1 <0>        -0.1299
      5 C5         -2.1352   -0.1312   -1.2857 C.3       1 <0>         0.1250
      6 N1         -3.5096   -0.6383   -1.2753 N.pl3     1 <0>        -0.3345
      7 C6         -4.6117    0.1099   -1.4570 C.2       1 <0>         0.1577
      8 C7         -5.6996   -0.7205   -1.3790 C.2       1 <0>        -0.2673
      9 C8         -5.1826   -2.0755   -1.1291 C.2       1 <0>         0.3010
     10 N2         -3.8733   -1.9760   -1.0807 N.2       1 <0>        -0.2475
     11 N3         -6.0727   -3.0955   -1.0094 N.2       1 <0>        -0.4469
     12 C9         -7.3582   -2.9033   -1.1097 C.2       1 <0>         0.6516
     13 N4         -7.9297   -1.6812   -1.3412 N.pl3     1 <0>        -0.3750
     14 C10        -7.1554   -0.5608   -1.4831 C.2       1 <0>         0.4112
     15 N5         -7.9535    0.4618   -1.6931 N.2       1 <0>        -0.5121
     16 C11        -9.2275    0.0462   -1.6928 C.2       1 <0>         0.3452
     17 N6         -9.2586   -1.2552   -1.4831 N.2       1 <0>        -0.2918
     18 C12       -10.4097    0.9091   -1.8972 C.2       1 <0>         0.0431
     19 C13       -11.7062    0.5000   -1.8937 C.2       1 <0>        -0.1367
     20 C14       -12.4938    1.6453   -2.1248 C.2       1 <0>        -0.2191
     21 C15       -11.6480    2.6860   -2.2567 C.2       1 <0>        -0.0051
     22 O1        -10.3901    2.2385   -2.1136 O.3       1 <0>        -0.1533
     23 N7         -8.1921   -3.9967   -0.9750 N.am      1 <0>        -0.6453
     24 C16        -7.6703   -5.2182   -0.7467 C.2       1 <0>         0.5060
     25 O2         -6.4689   -5.3576   -0.6596 O.2       1 <0>        -0.4285
     26 C17        -8.5799   -6.4107   -0.5998 C.3       1 <0>        -0.0458
     27 C18        -7.7528   -7.6460   -0.3529 C.2       1 <0>        -0.1441
     28 C19        -7.3444   -8.1785    0.8247 C.2       1 <0>        -0.1347
     29 C20        -6.5842   -9.3329    0.8106 C.2       1 <0>        -0.1587
     30 C21        -6.2695   -9.8982   -0.3804 C.2       1 <0>        -0.1666
     31 S1         -7.0631   -8.7920   -1.5354 S.3       1 <0>         0.0530
     32 H1          1.0039    1.9031    0.0027 H         1 <0>         0.0596
     33 H2         -0.5459    1.8868   -0.8726 H         1 <0>         0.0552
     34 H3         -0.5289    1.8773    0.9072 H         1 <0>         0.0574
     35 H4          0.5123   -0.3556   -0.8948 H         1 <0>         0.0759
     36 H5          0.2319   -0.1594    2.1383 H         1 <0>         0.0557
     37 H6          0.7568   -1.6008    1.2356 H         1 <0>         0.0574
     38 H7          1.7647   -0.1336    1.2338 H         1 <0>         0.0586
     39 H8         -1.4190   -1.6203    0.0965 H         1 <0>         0.0839
     40 H9         -1.9701   -0.1109    0.8621 H         1 <0>         0.0720
     41 H10        -2.1495    0.9555   -1.3693 H         1 <0>         0.1094
     42 H11        -1.5984   -0.5539   -2.1349 H         1 <0>         0.0983
     43 H12        -4.6358    1.1753   -1.6325 H         1 <0>         0.2001
     44 H13       -12.0634   -0.5080   -1.7432 H         1 <0>         0.1607
     45 H14       -13.5715    1.6820   -2.1849 H         1 <0>         0.1595
     46 H15       -11.9345    3.7105   -2.4428 H         1 <0>         0.2138
     47 H16        -9.1532   -3.8851   -1.0447 H         1 <0>         0.4310
     48 H17        -9.2549   -6.2514    0.2411 H         1 <0>         0.1254
     49 H18        -9.1611   -6.5390   -1.5130 H         1 <0>         0.1184
     50 H19        -7.6088   -7.7078    1.7601 H         1 <0>         0.1323
     51 H20        -6.2457   -9.7775    1.7348 H         1 <0>         0.1349
     52 H21        -5.6920  -10.7890   -0.5791 H         1 <0>         0.1866
@<TRIPOS>BOND
     1    1    2 1
     2    1   32 1
     3    1   33 1
     4    1   34 1
     5    2    3 1
     6    2    4 1
     7    2   35 1
     8    3   36 1
     9    3   37 1
    10    3   38 1
    11    4    5 1
    12    4   39 1
    13    4   40 1
    14    5    6 1
    15    5   41 1
    16    5   42 1
    17    6   10 1
    18    6    7 1
    19    7    8 2
    20    7   43 1
    21    8   14 1
    22    8    9 1
    23    9   10 2
    24    9   11 1
    25   11   12 2
    26   12   13 1
    27   12   23 1
    28   13   17 1
    29   13   14 1
    30   14   15 2
    31   15   16 1
    32   16   17 2
    33   16   18 1
    34   18   22 1
    35   18   19 2
    36   19   20 1
    37   19   44 1
    38   20   21 2
    39   20   45 1
    40   21   22 1
    41   21   46 1
    42   23   24 am
    43   23   47 1
    44   24   25 2
    45   24   26 1
    46   26   27 1
    47   26   48 1
    48   26   49 1
    49   27   31 1
    50   27   28 2
    51   28   29 1
    52   28   50 1
    53   29   30 2
    54   29   51 1
    55   30   31 1
    56   30   52 1
