@<TRIPOS>MOLECULE
CHEMBL248298
   34    37     0     0     0
SMALL
USER_CHARGES

@<TRIPOS>ATOM
      1 C1         -0.0187    1.5258    0.0104 C.3       1 <0>        -0.1497
      2 C2          0.0021   -0.0041    0.0020 C.3       1 <0>        -0.1406
      3 C3          0.7182   -0.4975   -1.2568 C.3       1 <0>         0.1078
      4 N1          0.7381   -1.9623   -1.2648 N.pl3     1 <0>        -0.4511
      5 C4          1.7468   -2.7577   -0.8089 C.2       1 <0>         0.2297
      6 N2          1.4277   -4.0101   -0.9708 N.2       1 <0>        -0.4338
      7 C5          0.2029   -4.0918   -1.5367 C.2       1 <0>        -0.0264
      8 C6         -0.2579   -2.7852   -1.7273 C.2       1 <0>         0.2878
      9 N3         -1.4621   -2.5770   -2.2725 N.2       1 <0>        -0.5437
     10 C7         -2.2436   -3.5637   -2.6394 C.2       1 <0>         0.6695
     11 N4         -1.8853   -4.8710   -2.4918 N.pl3     1 <0>        -0.3629
     12 C8         -0.6662   -5.1904   -1.9510 C.2       1 <0>         0.3979
     13 N5         -0.5690   -6.5051   -1.9218 N.2       1 <0>        -0.5002
     14 C9         -1.6767   -7.0491   -2.4396 C.2       1 <0>         0.3450
     15 N6         -2.5111   -6.0880   -2.7906 N.2       1 <0>        -0.2955
     16 C10        -1.9348   -8.4980   -2.5761 C.2       1 <0>         0.0439
     17 C11        -3.0526   -9.0628   -3.1048 C.2       1 <0>        -0.1378
     18 C12        -2.8733  -10.4587   -3.0361 C.2       1 <0>        -0.2201
     19 C13        -1.6675  -10.6747   -2.4747 C.2       1 <0>        -0.0045
     20 O1         -1.1009   -9.4880   -2.2034 O.3       1 <0>        -0.1516
     21 N7         -3.4695   -3.2695   -3.1929 N.pl3     1 <0>        -0.8070
     22 H1          1.0039    1.9031    0.0027 H         1 <0>         0.0599
     23 H2         -0.5459    1.8868   -0.8726 H         1 <0>         0.0595
     24 H3         -0.5289    1.8773    0.9072 H         1 <0>         0.0635
     25 H4          0.5293   -0.3651    0.8851 H         1 <0>         0.0717
     26 H5         -1.0205   -0.3814    0.0098 H         1 <0>         0.0714
     27 H6          0.1910   -0.1364   -2.1398 H         1 <0>         0.0977
     28 H7          1.7408   -0.1202   -1.2645 H         1 <0>         0.1037
     29 H8          2.6717   -2.4028   -0.3787 H         1 <0>         0.2281
     30 H9         -3.9121   -8.5422   -3.5006 H         1 <0>         0.1602
     31 H10        -3.5707  -11.2129   -3.3697 H         1 <0>         0.1594
     32 H11        -1.2279  -11.6416   -2.2796 H         1 <0>         0.2140
     33 H12        -3.7415   -2.3452   -3.3055 H         1 <0>         0.4288
     34 H13        -4.0610   -3.9864   -3.4703 H         1 <0>         0.4253
@<TRIPOS>BOND
     1    1    2 1
     2    1   22 1
     3    1   23 1
     4    1   24 1
     5    2    3 1
     6    2   25 1
     7    2   26 1
     8    3    4 1
     9    3   27 1
    10    3   28 1
    11    4    8 1
    12    4    5 1
    13    5    6 2
    14    5   29 1
    15    6    7 1
    16    7   12 1
    17    7    8 2
    18    8    9 1
    19    9   10 2
    20   10   11 1
    21   10   21 1
    22   11   15 1
    23   11   12 1
    24   12   13 2
    25   13   14 1
    26   14   15 2
    27   14   16 1
    28   16   20 1
    29   16   17 2
    30   17   18 1
    31   17   30 1
    32   18   19 2
    33   18   31 1
    34   19   20 1
    35   19   32 1
    36   21   33 1
    37   21   34 1
