@<TRIPOS>MOLECULE
CHEMBL274274
   47    51     0     0     0
SMALL
USER_CHARGES

@<TRIPOS>ATOM
      1 C1         -0.0167    1.3781    0.0096 C.ar      1 <0>        -0.1103
      2 C2          1.1709    2.0855    0.0021 C.ar      1 <0>        -0.1221
      3 C3          2.3773    1.4107   -0.0130 C.ar      1 <0>        -0.0988
      4 C4          2.3960    0.0285   -0.0201 C.ar      1 <0>        -0.1105
      5 C5          1.2084   -0.6789   -0.0117 C.ar      1 <0>        -0.0987
      6 C6          0.0021   -0.0041    0.0020 C.ar      1 <0>        -0.1220
      7 C7          3.7112   -0.7071   -0.0376 C.3       1 <0>         0.1633
      8 N1          4.1518   -0.9524    1.3379 N.pl3     1 <0>        -0.7202
      9 C8          5.3526   -1.6239    1.5771 C.ar      1 <0>         0.2674
     10 C9          6.1310   -2.0536    0.5160 C.ar      1 <0>        -0.2005
     11 C10         7.3224   -2.7192    0.7475 C.ar      1 <0>        -0.0401
     12 C11         7.7480   -2.9627    2.0389 C.ar      1 <0>        -0.1757
     13 C12         6.9826   -2.5409    3.1168 C.ar      1 <0>         0.1472
     14 C13         5.7773   -1.8603    2.8960 C.ar      1 <0>         0.0373
     15 N2          5.0146   -1.4333    3.9380 N.2       1 <0>        -0.5042
     16 C14         5.3768   -1.6349    5.1816 C.2       1 <0>         0.4687
     17 C15         6.6346   -2.3376    5.4756 C.2       1 <0>         0.2596
     18 N3          7.4118   -2.7874    4.4198 N.am      1 <0>        -0.4729
     19 C16         8.4990   -3.3973    4.9258 C.2       1 <0>         0.6596
     20 O1          9.4049   -3.8989    4.2842 O.2       1 <0>        -0.5115
     21 N4          8.4066   -3.3534    6.2711 N.am      1 <0>        -0.3773
     22 N5          7.2262   -2.6679    6.5926 N.2       1 <0>        -0.2391
     23 C17         9.3328   -3.8765    7.1811 C.ar      1 <0>         0.1722
     24 C18        10.4803   -4.5090    6.7201 C.ar      1 <0>        -0.1385
     25 C19        11.3921   -5.0241    7.6205 C.ar      1 <0>        -0.0925
     26 C20        11.1636   -4.9107    8.9796 C.ar      1 <0>        -0.1276
     27 C21        10.0219   -4.2820    9.4419 C.ar      1 <0>        -0.0971
     28 C22         9.1092   -3.7593    8.5469 C.ar      1 <0>        -0.1229
     29 N6          4.5768   -1.1866    6.2162 N.pl3     1 <0>        -0.8132
     30 H1         -0.9591    1.9053    0.0259 H         1 <0>         0.1237
     31 H2          1.1563    3.1654    0.0076 H         1 <0>         0.1244
     32 H3          3.3051    1.9634   -0.0196 H         1 <0>         0.1238
     33 H4          1.2231   -1.7588   -0.0176 H         1 <0>         0.1238
     34 H5         -0.9258   -0.5567    0.0082 H         1 <0>         0.1244
     35 H6          3.5884   -1.6586   -0.5549 H         1 <0>         0.0728
     36 H7          4.4573   -0.1052   -0.5563 H         1 <0>         0.0728
     37 H8          3.6095   -0.6484    2.0824 H         1 <0>         0.4125
     38 H9          5.8069   -1.8688   -0.4975 H         1 <0>         0.1353
     39 H10         7.9228   -3.0506   -0.0869 H         1 <0>         0.1370
     40 H11         8.6788   -3.4831    2.2101 H         1 <0>         0.1436
     41 H12        10.6591   -4.5982    5.6588 H         1 <0>         0.1538
     42 H13        12.2843   -5.5164    7.2627 H         1 <0>         0.1342
     43 H14        11.8782   -5.3144    9.6817 H         1 <0>         0.1296
     44 H15         9.8462   -4.1954   10.5040 H         1 <0>         0.1337
     45 H16         8.2201   -3.2641    8.9085 H         1 <0>         0.1372
     46 H17         3.7473   -0.7228    6.0220 H         1 <0>         0.4192
     47 H18         4.8451   -1.3359    7.1364 H         1 <0>         0.4187
@<TRIPOS>BOND
     1    1    6 ar
     2    1    2 ar
     3    1   30 1
     4    2    3 ar
     5    2   31 1
     6    3    4 ar
     7    3   32 1
     8    4    5 ar
     9    4    7 1
    10    5    6 ar
    11    5   33 1
    12    6   34 1
    13    7    8 1
    14    7   35 1
    15    7   36 1
    16    8    9 1
    17    8   37 1
    18    9   14 ar
    19    9   10 ar
    20   10   11 ar
    21   10   38 1
    22   11   12 ar
    23   11   39 1
    24   12   13 ar
    25   12   40 1
    26   13   18 1
    27   13   14 ar
    28   14   15 1
    29   15   16 2
    30   16   17 1
    31   16   29 1
    32   17   22 2
    33   17   18 1
    34   18   19 am
    35   19   20 2
    36   19   21 am
    37   21   22 1
    38   21   23 1
    39   23   28 ar
    40   23   24 ar
    41   24   25 ar
    42   24   41 1
    43   25   26 ar
    44   25   42 1
    45   26   27 ar
    46   26   43 1
    47   27   28 ar
    48   27   44 1
    49   28   45 1
    50   29   46 1
    51   29   47 1
