@<TRIPOS>MOLECULE
CHEMBL572601
   49    53     0     0     0
SMALL
USER_CHARGES

@<TRIPOS>ATOM
      1 C1         -0.0187    1.5258    0.0104 C.3       1 <0>        -0.1538
      2 C2          0.0021   -0.0041    0.0020 C.3       1 <0>        -0.1212
      3 C3         -1.4333   -0.5336    0.0129 C.3       1 <0>        -0.1354
      4 C4         -1.4126   -2.0635    0.0045 C.3       1 <0>         0.1265
      5 N1         -2.7870   -2.5706    0.0149 N.pl3     1 <0>        -0.3355
      6 C5         -3.3016   -3.4293   -0.8825 C.2       1 <0>         0.1579
      7 C6         -4.6075   -3.6634   -0.5374 C.2       1 <0>        -0.2678
      8 C7         -4.8766   -2.8679    0.6712 C.2       1 <0>         0.3013
      9 N2         -3.7609   -2.2388    0.9641 N.2       1 <0>        -0.2483
     10 N3         -6.1183   -2.9263    1.2206 N.2       1 <0>        -0.4476
     11 C8         -7.0646   -3.6618    0.7078 C.2       1 <0>         0.6512
     12 N4         -6.9071   -4.4337   -0.4116 N.pl3     1 <0>        -0.3752
     13 C9         -5.7086   -4.4738   -1.0727 C.2       1 <0>         0.4108
     14 N5         -5.8370   -5.2833   -2.0998 N.2       1 <0>        -0.5123
     15 C10        -7.0831   -5.7750   -2.1326 C.2       1 <0>         0.3448
     16 N6         -7.7695   -5.2838   -1.1196 N.2       1 <0>        -0.2918
     17 C11        -7.6046   -6.7194   -3.1426 C.2       1 <0>         0.0432
     18 C12        -8.8675   -7.2205   -3.1893 C.2       1 <0>        -0.1369
     19 C13        -8.9244   -8.0739   -4.3090 C.2       1 <0>        -0.2191
     20 C14        -7.7062   -8.0518   -4.8845 C.2       1 <0>        -0.0052
     21 O1         -6.9128   -7.2287   -4.1802 O.3       1 <0>        -0.1533
     22 N7         -8.2979   -3.6627    1.3306 N.am      1 <0>        -0.6464
     23 C15        -8.4953   -2.9169    2.4358 C.2       1 <0>         0.5062
     24 O2         -7.5904   -2.2452    2.8835 O.2       1 <0>        -0.4321
     25 C16        -9.8405   -2.9178    3.1151 C.3       1 <0>        -0.0759
     26 C17        -9.7969   -2.0098    4.3171 C.2       1 <0>        -0.1135
     27 C18        -9.4278   -2.5020    5.5549 C.2       1 <0>        -0.1455
     28 C19        -9.3990   -1.6586    6.6157 C.2       1 <0>        -0.1705
     29 S1         -9.9036   -0.1151    5.8740 S.3       1 <0>         0.0455
     30 C20       -10.1135   -0.6971    4.1994 C.2       1 <0>        -0.1570
     31 H1          1.0039    1.9031    0.0027 H         1 <0>         0.0582
     32 H2         -0.5459    1.8868   -0.8726 H         1 <0>         0.0550
     33 H3         -0.5289    1.8773    0.9072 H         1 <0>         0.0568
     34 H4          0.5123   -0.3556   -0.8948 H         1 <0>         0.0660
     35 H5          0.5293   -0.3651    0.8851 H         1 <0>         0.0677
     36 H6         -1.9435   -0.1821    0.9097 H         1 <0>         0.0833
     37 H7         -1.9605   -0.1726   -0.8702 H         1 <0>         0.0712
     38 H8         -0.9024   -2.4150   -0.8923 H         1 <0>         0.1084
     39 H9         -0.8854   -2.4246    0.8875 H         1 <0>         0.0985
     40 H10        -2.7795   -3.8578   -1.7252 H         1 <0>         0.2003
     41 H11        -9.6717   -7.0061   -2.5009 H         1 <0>         0.1607
     42 H12        -9.7822   -8.6389   -4.6429 H         1 <0>         0.1595
     43 H13        -7.4169   -8.6020   -5.7677 H         1 <0>         0.2139
     44 H14        -9.0217   -4.2000    0.9725 H         1 <0>         0.4302
     45 H15       -10.5996   -2.5621    2.4184 H         1 <0>         0.1119
     46 H16       -10.0859   -3.9309    3.4338 H         1 <0>         0.1112
     47 H17        -9.1668   -3.5430    5.6752 H         1 <0>         0.1327
     48 H18        -9.1386   -1.8665    7.6430 H         1 <0>         0.1863
     49 H19       -10.4155   -0.1465    3.3207 H         1 <0>         0.1849
@<TRIPOS>BOND
     1    1    2 1
     2    1   31 1
     3    1   32 1
     4    1   33 1
     5    2    3 1
     6    2   34 1
     7    2   35 1
     8    3    4 1
     9    3   36 1
    10    3   37 1
    11    4    5 1
    12    4   38 1
    13    4   39 1
    14    5    9 1
    15    5    6 1
    16    6    7 2
    17    6   40 1
    18    7   13 1
    19    7    8 1
    20    8    9 2
    21    8   10 1
    22   10   11 2
    23   11   12 1
    24   11   22 1
    25   12   16 1
    26   12   13 1
    27   13   14 2
    28   14   15 1
    29   15   16 2
    30   15   17 1
    31   17   21 1
    32   17   18 2
    33   18   19 1
    34   18   41 1
    35   19   20 2
    36   19   42 1
    37   20   21 1
    38   20   43 1
    39   22   23 am
    40   22   44 1
    41   23   24 2
    42   23   25 1
    43   25   26 1
    44   25   45 1
    45   25   46 1
    46   26   30 2
    47   26   27 1
    48   27   28 2
    49   27   47 1
    50   28   29 1
    51   28   48 1
    52   29   30 1
    53   30   49 1
