@<TRIPOS>MOLECULE
CHEMBL470088
   50    55     0     0     0
SMALL
USER_CHARGES

@<TRIPOS>ATOM
      1 C1         -0.0162    1.3433    0.0094 C.2       1 <0>        -0.2204
      2 C2          1.3252    1.7744   -0.0011 C.2       1 <0>        -0.1271
      3 C3          2.0962    0.6548   -0.0144 C.2       1 <0>         0.0272
      4 O1          1.2797   -0.4166   -0.0124 O.3       1 <0>        -0.1521
      5 C4          0.0021   -0.0041    0.0020 C.2       1 <0>         0.0055
      6 C5          3.5736    0.6193   -0.0287 C.2       1 <0>         0.3638
      7 N1          4.3223   -0.4908   -0.0472 N.2       1 <0>        -0.5059
      8 C6          5.5979   -0.1638   -0.0558 C.2       1 <0>         0.4002
      9 C7          6.8494   -0.9218   -0.0750 C.2       1 <0>        -0.2578
     10 C8          7.1770   -2.2895   -0.0925 C.2       1 <0>         0.1545
     11 N2          8.4769   -2.4024   -0.1057 N.2       1 <0>        -0.2686
     12 N3          9.0564   -1.1275   -0.0976 N.pl3     1 <0>        -0.3752
     13 C9          8.0548   -0.2036   -0.0786 C.2       1 <0>         0.3755
     14 N4          8.0263    1.1363   -0.0638 N.2       1 <0>        -0.5798
     15 C10         6.9037    1.8122   -0.0459 C.2       1 <0>         0.7061
     16 N5          5.6820    1.2042   -0.0426 N.pl3     1 <0>        -0.3789
     17 N6          4.3634    1.6766   -0.0311 N.2       1 <0>        -0.2937
     18 N7          6.9590    3.1863   -0.0316 N.pl3     1 <0>        -0.7944
     19 C11        10.4923   -0.8370   -0.1068 C.3       1 <0>         0.1240
     20 C12        10.9797   -0.7205   -1.5524 C.3       1 <0>        -0.0296
     21 N8         12.4195   -0.4292   -1.5616 N.4       1 <0>        -0.3812
     22 C13        12.8687   -0.2105   -2.9451 C.3       1 <0>        -0.0012
     23 C14        14.2763    0.3860   -2.9136 C.3       1 <0>        -0.0972
     24 C15        15.1674   -0.4558   -2.0345 C.ar      1 <0>         0.1421
     25 C16        14.6373   -1.3605   -1.1393 C.ar      1 <0>        -0.1823
     26 C17        15.4955   -2.1117   -0.3462 C.ar      1 <0>        -0.0171
     27 C18        16.8623   -1.9269   -0.4852 C.ar      1 <0>        -0.1429
     28 C19        17.3226   -1.0034   -1.4058 C.ar      1 <0>         0.1668
     29 N9         16.4786   -0.3081   -2.1391 N.ar      1 <0>        -0.4596
     30 Br1        18.0780   -2.9213    0.5679 Br        1 <0>         0.0061
     31 C20        13.1536   -1.5652   -0.9962 C.3       1 <0>         0.0458
     32 H1         -0.8931    1.9736    0.0252 H         1 <0>         0.1624
     33 H2          1.6736    2.7966    0.0006 H         1 <0>         0.1610
     34 H3         -0.8667   -0.6456    0.0076 H         1 <0>         0.2173
     35 H4          6.4721   -3.1077   -0.0946 H         1 <0>         0.2096
     36 H5          7.8178    3.6373   -0.0348 H         1 <0>         0.4313
     37 H6          6.1392    3.7046   -0.0183 H         1 <0>         0.4315
     38 H7         10.6764    0.1019    0.4155 H         1 <0>         0.1190
     39 H8         11.0292   -1.6426    0.3939 H         1 <0>         0.1209
     40 H9         10.7956   -1.6593   -2.0747 H         1 <0>         0.1446
     41 H10        10.4428    0.0852   -2.0531 H         1 <0>         0.1426
     42 H11        12.8859   -1.1609   -3.4786 H         1 <0>         0.1388
     43 H12        12.1898    0.4802   -3.4452 H         1 <0>         0.1470
     44 H13        14.6826    0.4096   -3.9247 H         1 <0>         0.1396
     45 H14        14.2312    1.4007   -2.5182 H         1 <0>         0.1178
     46 H15        15.1056   -2.8252    0.3646 H         1 <0>         0.1596
     47 H16        18.3852   -0.8508   -1.5244 H         1 <0>         0.1811
     48 H17        12.9048   -1.6638    0.0605 H         1 <0>         0.1450
     49 H18        12.8643   -2.4765   -1.5195 H         1 <0>         0.1490
     50 H19        12.6004    0.3972   -1.0118 H         1 <0>         0.4293
@<TRIPOS>BOND
     1    1    5 2
     2    1    2 1
     3    1   32 1
     4    2    3 2
     5    2   33 1
     6    3    4 1
     7    3    6 1
     8    4    5 1
     9    5   34 1
    10    6   17 2
    11    6    7 1
    12    7    8 2
    13    8   16 1
    14    8    9 1
    15    9   13 2
    16    9   10 1
    17   10   11 2
    18   10   35 1
    19   11   12 1
    20   12   13 1
    21   12   19 1
    22   13   14 1
    23   14   15 2
    24   15   16 1
    25   15   18 1
    26   16   17 1
    27   18   36 1
    28   18   37 1
    29   19   20 1
    30   19   38 1
    31   19   39 1
    32   20   21 1
    33   20   40 1
    34   20   41 1
    35   21   31 1
    36   21   22 1
    37   21   50 1
    38   22   23 1
    39   22   42 1
    40   22   43 1
    41   23   24 1
    42   23   44 1
    43   23   45 1
    44   24   29 ar
    45   24   25 ar
    46   25   26 ar
    47   25   31 1
    48   26   27 ar
    49   26   46 1
    50   27   28 ar
    51   27   30 1
    52   28   29 ar
    53   28   47 1
    54   31   48 1
    55   31   49 1
