@<TRIPOS>MOLECULE
CHEMBL607796
   51    54     0     0     0
SMALL
USER_CHARGES

@<TRIPOS>ATOM
      1 C1         -0.0164    1.3601    0.0095 C.2       1 <0>         0.2495
      2 N1          1.2003    1.8207    0.0004 N.2       1 <0>        -0.4505
      3 C2          2.0748    0.7852   -0.0135 C.ar      1 <0>        -0.1446
      4 C3          3.4769    0.6781   -0.0279 C.ar      1 <0>         0.5384
      5 N2          4.0212   -0.5330   -0.0400 N.ar      1 <0>        -0.5921
      6 C4          3.2659   -1.6248   -0.0386 C.ar      1 <0>         0.6499
      7 N3          1.9437   -1.5689   -0.0257 N.ar      1 <0>        -0.5986
      8 C5          1.3165   -0.3972   -0.0126 C.ar      1 <0>         0.3562
      9 N4          0.0021   -0.0041    0.0020 N.pl3     1 <0>        -0.4732
     10 C6         -1.1669   -0.8870    0.0089 C.3       1 <0>         0.3154
     11 C7         -1.5541   -1.2554    1.4583 C.3       1 <0>         0.0792
     12 H1         -1.1953   -0.4969    2.1540 H         1 <0>         0.0861
     13 C8         -3.0988   -1.2844    1.4384 C.3       1 <0>         0.0470
     14 H2         -3.5037   -0.5403    2.1242 H         1 <0>         0.0870
     15 C9         -3.4621   -0.9302   -0.0207 C.3       1 <0>         0.0505
     16 H3         -3.6137   -1.8377   -0.6051 H         1 <0>         0.0992
     17 O1         -2.3213   -0.1969   -0.5174 O.3       1 <0>        -0.3461
     18 C10        -4.7178   -0.0568   -0.0599 C.3       1 <0>         0.0822
     19 O2         -5.1032    0.1626   -1.4183 O.3       1 <0>        -0.5634
     20 O3         -3.5795   -2.5875    1.7747 O.3       1 <0>        -0.5394
     21 O4         -1.0309   -2.5390    1.8055 O.3       1 <0>        -0.5268
     22 N5          3.8829   -2.8651   -0.0516 N.pl3     1 <0>        -0.5422
     23 N6          5.2812   -2.9518   -0.0658 N.2       1 <0>        -0.2125
     24 C11         5.8602   -4.1157   -0.0780 C.2       1 <0>         0.0924
     25 C12         7.3242   -4.2064   -0.0929 C.2       1 <0>        -0.0976
     26 C13         8.0156   -3.0854   -0.0880 C.2       1 <0>        -0.0965
     27 C14         9.5154   -3.0301   -0.1109 C.3       1 <0>        -0.0959
     28 C15        10.0986   -4.3879    0.2856 C.3       1 <0>        -0.1235
     29 C16         9.4113   -5.4756   -0.5489 C.3       1 <0>        -0.1194
     30 C17         7.9482   -5.5715   -0.1066 C.3       1 <0>        -0.0756
     31 N7          4.2722    1.8103   -0.0299 N.pl3     1 <0>        -0.8140
     32 H4         -0.9091    1.9677    0.0254 H         1 <0>         0.2212
     33 H5         -0.9653   -1.7869   -0.5722 H         1 <0>         0.1212
     34 H6         -5.5266   -0.5593    0.4706 H         1 <0>         0.0665
     35 H7         -4.5096    0.9005    0.4179 H         1 <0>         0.0613
     36 H8         -5.8940    0.7099   -1.5193 H         1 <0>         0.3866
     37 H9         -4.5436   -2.6625    1.7773 H         1 <0>         0.3870
     38 H10        -1.2443   -2.8204    2.7057 H         1 <0>         0.3898
     39 H11         3.3469   -3.6735   -0.0508 H         1 <0>         0.4032
     40 H12         5.2634   -5.0158   -0.0771 H         1 <0>         0.1144
     41 H13         7.4722   -2.1523   -0.0668 H         1 <0>         0.1242
     42 H14         9.8522   -2.7714   -1.1148 H         1 <0>         0.0799
     43 H15         9.8597   -2.2702    0.5906 H         1 <0>         0.0769
     44 H16        11.1706   -4.3977    0.0884 H         1 <0>         0.0664
     45 H17         9.9166   -4.5694    1.3449 H         1 <0>         0.0657
     46 H18         9.4613   -5.2127   -1.6056 H         1 <0>         0.0664
     47 H19         9.9065   -6.4323   -0.3828 H         1 <0>         0.0681
     48 H20         7.8970   -6.0023    0.8934 H         1 <0>         0.0759
     49 H21         7.4036   -6.2107   -0.8015 H         1 <0>         0.0733
     50 H22         3.8636    2.6900   -0.0213 H         1 <0>         0.4201
     51 H23         5.2383    1.7244   -0.0398 H         1 <0>         0.4109
@<TRIPOS>BOND
     1    1    9 1
     2    1    2 2
     3    1   32 1
     4    2    3 1
     5    3    8 ar
     6    3    4 ar
     7    4    5 ar
     8    4   31 1
     9    5    6 ar
    10    6    7 ar
    11    6   22 1
    12    7    8 ar
    13    8    9 1
    14    9   10 1
    15   10   17 1
    16   10   11 1
    17   10   33 1
    18   11   12 1
    19   11   13 1
    20   11   21 1
    21   13   14 1
    22   13   15 1
    23   13   20 1
    24   15   16 1
    25   15   17 1
    26   15   18 1
    27   18   19 1
    28   18   34 1
    29   18   35 1
    30   19   36 1
    31   20   37 1
    32   21   38 1
    33   22   23 1
    34   22   39 1
    35   23   24 2
    36   24   25 1
    37   24   40 1
    38   25   30 1
    39   25   26 2
    40   26   27 1
    41   26   41 1
    42   27   28 1
    43   27   42 1
    44   27   43 1
    45   28   29 1
    46   28   44 1
    47   28   45 1
    48   29   30 1
    49   29   46 1
    50   29   47 1
    51   30   48 1
    52   30   49 1
    53   31   50 1
    54   31   51 1
