@<TRIPOS>MOLECULE
CHEMBL520229
   52    55     0     0     0
SMALL
USER_CHARGES

@<TRIPOS>ATOM
      1 C1         -0.2216    1.6662   -0.7957 C.3       1 <0>        -0.0738
      2 C2         -0.0893    0.1827   -0.5660 C.2       1 <0>         0.0919
      3 C3         -0.2426   -0.8136   -1.5376 C.2       1 <0>        -0.2644
      4 C4         -0.0474   -2.0116   -0.9413 C.2       1 <0>         0.1210
      5 N1          0.2216   -1.7788    0.3705 N.pl3     1 <0>        -0.3191
      6 N2          0.1937   -0.3929    0.5737 N.2       1 <0>        -0.2615
      7 C5          0.4835   -2.7467    1.3403 C.ar      1 <0>         0.5982
      8 N3          0.5925   -2.3765    2.6046 N.ar      1 <0>        -0.5196
      9 C6          0.8416   -3.2723    3.5589 C.ar      1 <0>         0.2702
     10 C7          0.9871   -4.6126    3.2071 C.ar      1 <0>        -0.2434
     11 C8          0.8649   -4.9609    1.8631 C.ar      1 <0>         0.4340
     12 N4          0.6106   -4.0104    0.9698 N.ar      1 <0>        -0.5279
     13 N5          1.0019   -6.2857    1.4630 N.am      1 <0>        -0.6541
     14 C9          0.9873   -6.5988    0.1522 C.2       1 <0>         0.5012
     15 O1          0.7619   -5.7400   -0.6738 O.2       1 <0>        -0.4678
     16 C10         1.2509   -8.0160   -0.2870 C.3       1 <0>        -0.1707
     17 C11         0.9630   -2.8485    4.9759 C.ar      1 <0>         0.2003
     18 C12         0.8095   -1.5066    5.3091 C.ar      1 <0>        -0.1702
     19 C13         0.9243   -1.1208    6.6362 C.ar      1 <0>        -0.0369
     20 C14         1.1891   -2.0906    7.5872 C.ar      1 <0>        -0.2184
     21 C15         1.3315   -3.4167    7.1867 C.ar      1 <0>         0.4091
     22 N6          1.2115   -3.7543    5.9138 N.ar      1 <0>        -0.5243
     23 N7          1.5980   -4.3966    8.1357 N.pl3     1 <0>        -0.6142
     24 C16         1.9740   -5.7605    7.7311 C.3       1 <0>         0.0934
     25 C17         3.2457   -6.1566    8.4901 C.3       1 <0>         0.0451
     26 O2          3.0450   -5.9420    9.8891 O.3       1 <0>        -0.3786
     27 C18         2.8070   -4.5776   10.2437 C.3       1 <0>         0.0462
     28 C19         1.5183   -4.0992    9.5746 C.3       1 <0>         0.0884
     29 C20        -0.1166   -3.3603   -1.6099 C.3       1 <0>        -0.0819
     30 H1          0.7487    2.0790   -1.0717 H         1 <0>         0.0816
     31 H2         -0.9354    1.8472   -1.5994 H         1 <0>         0.0821
     32 H3         -0.5738    2.1453    0.1178 H         1 <0>         0.0764
     33 H4         -0.4756   -0.6535   -2.5799 H         1 <0>         0.1586
     34 H5          1.1899   -5.3629    3.9570 H         1 <0>         0.1635
     35 H6          1.1081   -6.9845    2.1274 H         1 <0>         0.4254
     36 H7          0.3095   -8.5634   -0.3325 H         1 <0>         0.1002
     37 H8          1.7160   -8.0103   -1.2728 H         1 <0>         0.1014
     38 H9          1.9181   -8.4994    0.4267 H         1 <0>         0.0842
     39 H10         0.6037   -0.7736    4.5430 H         1 <0>         0.1494
     40 H11         0.8099   -0.0854    6.9214 H         1 <0>         0.1421
     41 H12         1.2845   -1.8219    8.6289 H         1 <0>         0.1375
     42 H13         1.1686   -6.4520    7.9784 H         1 <0>         0.0703
     43 H14         2.1640   -5.7860    6.6581 H         1 <0>         0.1008
     44 H15         3.4636   -7.2095    8.3108 H         1 <0>         0.1063
     45 H16         4.0807   -5.5473    8.1443 H         1 <0>         0.0549
     46 H17         2.7092   -4.4945   11.3261 H         1 <0>         0.1085
     47 H18         3.6404   -3.9625    9.9044 H         1 <0>         0.0566
     48 H19         1.4066   -3.0249    9.7218 H         1 <0>         0.0952
     49 H20         0.6662   -4.6205   10.0106 H         1 <0>         0.0769
     50 H21         0.8872   -3.6778   -1.8923 H         1 <0>         0.0850
     51 H22        -0.5466   -4.0863   -0.9198 H         1 <0>         0.0992
     52 H23        -0.7404   -3.2925   -2.5011 H         1 <0>         0.0715
@<TRIPOS>BOND
     1    1    2 1
     2    1   30 1
     3    1   31 1
     4    1   32 1
     5    2    6 2
     6    2    3 1
     7    3    4 2
     8    3   33 1
     9    4    5 1
    10    4   29 1
    11    5    6 1
    12    5    7 1
    13    7   12 ar
    14    7    8 ar
    15    8    9 ar
    16    9   10 ar
    17    9   17 1
    18   10   11 ar
    19   10   34 1
    20   11   12 ar
    21   11   13 1
    22   13   14 am
    23   13   35 1
    24   14   15 2
    25   14   16 1
    26   16   36 1
    27   16   37 1
    28   16   38 1
    29   17   22 ar
    30   17   18 ar
    31   18   19 ar
    32   18   39 1
    33   19   20 ar
    34   19   40 1
    35   20   21 ar
    36   20   41 1
    37   21   22 ar
    38   21   23 1
    39   23   28 1
    40   23   24 1
    41   24   25 1
    42   24   42 1
    43   24   43 1
    44   25   26 1
    45   25   44 1
    46   25   45 1
    47   26   27 1
    48   27   28 1
    49   27   46 1
    50   27   47 1
    51   28   48 1
    52   28   49 1
    53   29   50 1
    54   29   51 1
    55   29   52 1
