@<TRIPOS>MOLECULE
CHEMBL209366
   48    51     0     0     0
SMALL
USER_CHARGES

@<TRIPOS>ATOM
      1 C1         -5.9911   -2.0040    3.9734 C.3       1 <0>        -0.1436
      2 C2         -5.2864   -3.3449    3.7582 C.3       1 <0>        -0.1380
      3 C3         -5.0952   -3.5858    2.2594 C.3       1 <0>         0.1179
      4 N1         -4.4204   -4.8697    2.0533 N.am      1 <0>        -0.5340
      5 C4         -3.0591   -4.9104    2.0115 C.2       1 <0>         0.5565
      6 O1         -2.3400   -3.7829    2.1583 O.3       1 <0>        -0.5914
      7 C5         -2.4181   -6.1368    1.8147 C.2       1 <0>        -0.1451
      8 C6         -3.2060   -7.3023    1.6646 C.2       1 <0>         0.2260
      9 N2         -2.3676   -8.3075    1.4947 N.2       1 <0>        -0.5276
     10 C7         -1.1159   -7.8349    1.5307 C.2       1 <0>         0.1467
     11 N3         -1.1336   -6.5278    1.7231 N.2       1 <0>        -0.4342
     12 C8          0.1088   -8.6562    1.3783 C.ar      1 <0>         0.1102
     13 C9          1.3658   -8.0563    1.4392 C.ar      1 <0>        -0.1266
     14 C10         2.5023   -8.8260    1.2971 C.ar      1 <0>        -0.0157
     15 C11         2.3961  -10.1903    1.0945 C.ar      1 <0>        -0.6948
     16 C12         1.1515  -10.7911    1.0327 C.ar      1 <0>        -0.0213
     17 C13         0.0081  -10.0324    1.1792 C.ar      1 <0>        -0.1281
     18 S1          3.8517  -11.1666    0.9139 S.o2      1 <0>         2.6916
     19 O2          3.5031  -12.2658    0.0835 O.2       1 <0>        -0.9608
     20 O3          4.9045  -10.2696    0.5881 O.2       1 <0>        -0.9551
     21 N4          4.2085  -11.7939    2.4043 N.pl3     1 <0>        -1.0661
     22 C14         4.5205  -10.9402    3.4649 C.ar      1 <0>         0.1244
     23 C15         5.7619  -10.3189    3.5164 C.ar      1 <0>        -0.1065
     24 C16         6.0669   -9.4751    4.5662 C.ar      1 <0>        -0.1142
     25 C17         5.1383   -9.2486    5.5657 C.ar      1 <0>        -0.1116
     26 C18         3.9016   -9.8655    5.5175 C.ar      1 <0>        -0.1127
     27 C19         3.5880  -10.7061    4.4675 C.ar      1 <0>        -0.1076
     28 N5         -4.5849   -7.1899    1.7179 N.am      1 <0>        -0.6080
     29 H1         -5.1400   -7.9789    1.6168 H         1 <0>         0.4218
     30 C20        -5.1554   -5.9860    1.9146 C.2       1 <0>         0.7117
     31 O4         -6.3679   -5.9063    1.9632 O.2       1 <0>        -0.5710
     32 H2         -5.3845   -1.2029    3.5511 H         1 <0>         0.0571
     33 H3         -6.9635   -2.0215    3.4812 H         1 <0>         0.0557
     34 H4         -6.1273   -1.8324    5.0411 H         1 <0>         0.0561
     35 H5         -4.3140   -3.3274    4.2503 H         1 <0>         0.0690
     36 H6         -5.8930   -4.1461    4.1804 H         1 <0>         0.0655
     37 H7         -6.0676   -3.6033    1.7672 H         1 <0>         0.0934
     38 H8         -4.4886   -2.7847    1.8371 H         1 <0>         0.0972
     39 H9          1.4499   -6.9912    1.5970 H         1 <0>         0.1401
     40 H10         3.4765   -8.3623    1.3437 H         1 <0>         0.1358
     41 H11         1.0746  -11.8566    0.8740 H         1 <0>         0.1331
     42 H12        -0.9629  -10.5032    1.1356 H         1 <0>         0.1386
     43 H13         4.2009  -12.7542    2.5408 H         1 <0>         0.4226
     44 H14         6.4877  -10.4959    2.7366 H         1 <0>         0.1335
     45 H15         7.0318   -8.9917    4.6069 H         1 <0>         0.1278
     46 H16         5.3797   -8.5888    6.3859 H         1 <0>         0.1251
     47 H17         3.1787   -9.6866    6.2996 H         1 <0>         0.1274
     48 H18         2.6203  -11.1841    4.4281 H         1 <0>         0.1293
@<TRIPOS>BOND
     1    1    2 1
     2    1   32 1
     3    1   33 1
     4    1   34 1
     5    2    3 1
     6    2   35 1
     7    2   36 1
     8    3   37 1
     9    3   38 1
    10    3    4 1
    11    4   30 am
    12    4    5 1
    13    5    6 1
    14    5    7 2
    15    7   11 1
    16    7    8 1
    17    8    9 2
    18    8   28 1
    19    9   10 1
    20   10   11 2
    21   10   12 1
    22   12   17 ar
    23   12   13 ar
    24   13   14 ar
    25   13   39 1
    26   14   15 ar
    27   14   40 1
    28   15   16 ar
    29   15   18 1
    30   16   17 ar
    31   16   41 1
    32   17   42 1
    33   18   19 2
    34   18   20 2
    35   18   21 1
    36   21   22 1
    37   21   43 1
    38   22   27 ar
    39   22   23 ar
    40   23   24 ar
    41   23   44 1
    42   24   25 ar
    43   24   45 1
    44   25   26 ar
    45   25   46 1
    46   26   27 ar
    47   26   47 1
    48   27   48 1
    49   28   29 1
    50   28   30 am
    51   30   31 2
