@<TRIPOS>MOLECULE
CHEMBL321505
   37    39     0     0     0
SMALL
USER_CHARGES

@<TRIPOS>ATOM
      1 C1         -0.0127    1.0858    0.0080 C.3       1 <0>         0.0885
      2 N1         -0.7213    1.5711   -1.1789 N.am      1 <0>        -0.5104
      3 C2         -2.0896    1.7829   -1.1291 C.2       1 <0>         0.3236
      4 C3         -2.7385    2.2438   -2.2678 C.2       1 <0>        -0.1539
      5 C4         -1.9871    2.4823   -3.4387 C.2       1 <0>         0.5937
      6 O1         -2.5331    2.8869   -4.4494 O.2       1 <0>        -0.5126
      7 N2         -0.6567    2.2572   -3.4249 N.am      1 <0>        -0.5513
      8 C5         -0.0409    1.8160   -2.3146 C.2       1 <0>         0.7071
      9 O2          1.1605    1.6290   -2.3377 O.2       1 <0>        -0.5309
     10 C6          0.1291    2.5026   -4.6367 C.3       1 <0>         0.0833
     11 N3         -4.0723    2.3610   -1.9316 N.pl3     1 <0>        -0.5124
     12 C7         -4.1887    1.9809   -0.6443 C.2       1 <0>         0.3071
     13 N4         -3.0147    1.6409   -0.1765 N.2       1 <0>        -0.4918
     14 H1         -4.7896    2.6601   -2.5121 H         1 <0>         0.4353
     15 C8         -5.4760    1.9518    0.1386 C.3       1 <0>        -0.0100
     16 C9         -6.6270    1.5530   -0.7871 C.3       1 <0>        -0.1220
     17 C10        -7.9340    1.5234    0.0077 C.3       1 <0>        -0.1171
     18 C11        -8.2069    2.9107    0.5923 C.3       1 <0>        -0.1249
     19 C12        -7.0559    3.3096    1.5180 C.3       1 <0>        -0.1186
     20 C13        -5.7490    3.3391    0.7232 C.3       1 <0>        -0.1124
     21 H2          0.0021   -0.0041    0.0020 H         1 <0>         0.0740
     22 H3          1.0099    1.4631    0.0003 H         1 <0>         0.0942
     23 H4         -0.5229    1.4373    0.9048 H         1 <0>         0.0923
     24 H5          0.4850    3.5329   -4.6365 H         1 <0>         0.0771
     25 H6          0.9816    1.8238   -4.6606 H         1 <0>         0.0971
     26 H7         -0.4945    2.3338   -5.5146 H         1 <0>         0.0952
     27 H8         -5.3927    1.2265    0.9480 H         1 <0>         0.1160
     28 H9         -6.7103    2.2783   -1.5965 H         1 <0>         0.0639
     29 H10        -6.4326    0.5646   -1.2036 H         1 <0>         0.0727
     30 H11        -8.7540    1.2393   -0.6518 H         1 <0>         0.0696
     31 H12        -7.8507    0.7981    0.8171 H         1 <0>         0.0694
     32 H13        -8.2903    3.6361   -0.2171 H         1 <0>         0.0632
     33 H14        -9.1381    2.8897    1.1585 H         1 <0>         0.0671
     34 H15        -7.2504    4.2979    1.9345 H         1 <0>         0.0694
     35 H16        -6.9726    2.5842    2.3274 H         1 <0>         0.0688
     36 H17        -4.9290    3.6233    1.3827 H         1 <0>         0.0748
     37 H18        -5.8323    4.0645   -0.0862 H         1 <0>         0.0650
@<TRIPOS>BOND
     1    1   21 1
     2    1   22 1
     3    1   23 1
     4    1    2 1
     5    2    3 1
     6    2    8 am
     7    3   13 1
     8    3    4 2
     9    4    5 1
    10    4   11 1
    11    5    7 am
    12    5    6 2
    13    7    8 am
    14    7   10 1
    15    8    9 2
    16   10   24 1
    17   10   25 1
    18   10   26 1
    19   11   14 1
    20   11   12 1
    21   12   15 1
    22   12   13 2
    23   15   20 1
    24   15   16 1
    25   15   27 1
    26   16   17 1
    27   16   28 1
    28   16   29 1
    29   17   18 1
    30   17   30 1
    31   17   31 1
    32   18   19 1
    33   18   32 1
    34   18   33 1
    35   19   20 1
    36   19   34 1
    37   19   35 1
    38   20   36 1
    39   20   37 1
