@<TRIPOS>MOLECULE
CHEMBL449710
   59    64     0     0     0
SMALL
USER_CHARGES

@<TRIPOS>ATOM
      1 C1         -0.0167    1.3796    0.0096 C.ar      1 <0>        -0.0360
      2 C2          1.1944    2.0582    0.0017 C.ar      1 <0>        -0.1976
      3 C3          2.3720    1.3381   -0.0134 C.ar      1 <0>         0.1370
      4 N1          2.3579    0.0185   -0.0208 N.ar      1 <0>        -0.5474
      5 C4          1.2248   -0.6633   -0.0137 C.ar      1 <0>         0.3088
      6 C5          0.0021   -0.0041    0.0020 C.ar      1 <0>        -0.1817
      7 O1          1.2567   -2.0197   -0.0217 O.3       1 <0>        -0.2944
      8 C6          2.5448   -2.6382   -0.0378 C.3       1 <0>         0.0618
      9 C7          2.3802   -4.1593   -0.0448 C.3       1 <0>        -0.1140
     10 H1          1.7635   -4.4640    0.8007 H         1 <0>         0.1329
     11 C8          1.7121   -4.5977   -1.3525 C.3       1 <0>        -0.1279
     12 C9          2.6189   -4.2041   -2.5195 C.3       1 <0>        -0.1431
     13 C10         4.0007   -4.8435   -2.3445 C.3       1 <0>         0.0162
     14 H2          3.9047   -5.9292   -2.3570 H         1 <0>         0.1478
     15 C11         4.8795   -4.3916   -3.5188 C.3       1 <0>         0.1091
     16 N2          6.2557   -4.8547   -3.2976 N.pl3     1 <0>        -0.5968
     17 C12         6.8755   -4.5590   -1.9957 C.3       1 <0>         0.0886
     18 C13         5.9203   -5.0349   -0.8989 C.3       1 <0>        -0.0211
     19 N3          4.5958   -4.4177   -1.0735 N.4       1 <0>        -0.3842
     20 C14         3.7526   -4.8237    0.0562 C.3       1 <0>         0.0019
     21 C15         6.9383   -5.5381   -4.2687 C.2       1 <0>         0.6720
     22 N4          8.2223   -5.9580   -4.0180 N.pl3     1 <0>        -0.6593
     23 C16         8.7332   -7.0276   -4.7529 C.2       1 <0>         0.6289
     24 N5          8.2026   -7.1358   -6.0280 N.pl3     1 <0>        -0.4290
     25 C17         7.0108   -6.5160   -6.3426 C.2       1 <0>         0.4994
     26 N6          6.3447   -5.7838   -5.4250 N.2       1 <0>        -0.5262
     27 N7          6.7447   -6.7930   -7.5932 N.2       1 <0>        -0.4817
     28 C18         7.7227   -7.5632   -8.1035 C.2       1 <0>         0.3439
     29 N8          8.6324   -7.7898   -7.1706 N.2       1 <0>        -0.2735
     30 C19         7.7724   -8.0759   -9.4886 C.2       1 <0>         0.0283
     31 C20         6.8474   -7.8461  -10.4581 C.2       1 <0>        -0.1216
     32 C21         7.2926   -8.5210  -11.6120 C.2       1 <0>        -0.2193
     33 C22         8.4553   -9.1231  -11.2933 C.2       1 <0>        -0.0001
     34 O2          8.7451   -8.8473  -10.0115 O.3       1 <0>        -0.1602
     35 N9          9.6282   -7.8494   -4.2834 N.2       1 <0>        -0.6688
     36 H3         -0.9521    1.9192    0.0259 H         1 <0>         0.1479
     37 H4          1.2150    3.1380    0.0070 H         1 <0>         0.1439
     38 H5          3.3168    1.8612   -0.0196 H         1 <0>         0.1635
     39 H6         -0.9215   -0.5639    0.0082 H         1 <0>         0.1447
     40 H7          3.0861   -2.3272   -0.9313 H         1 <0>         0.0603
     41 H8          3.1034   -2.3373    0.8486 H         1 <0>         0.0782
     42 H9          1.5713   -5.6786   -1.3470 H         1 <0>         0.0891
     43 H10         0.7474   -4.1009   -1.4550 H         1 <0>         0.1059
     44 H11         2.1763   -4.5485   -3.4541 H         1 <0>         0.1222
     45 H12         2.7227   -3.1194   -2.5475 H         1 <0>         0.0925
     46 H13         4.4962   -4.8183   -4.4458 H         1 <0>         0.1539
     47 H14         4.8675   -3.3037   -3.5853 H         1 <0>         0.1045
     48 H15         7.8255   -5.0868   -1.9115 H         1 <0>         0.1287
     49 H16         7.0399   -3.4857   -1.9010 H         1 <0>         0.1146
     50 H17         5.8189   -6.1189   -0.9528 H         1 <0>         0.1395
     51 H18         6.3222   -4.7586    0.0758 H         1 <0>         0.1541
     52 H19         4.2278   -4.5301    0.9922 H         1 <0>         0.1395
     53 H20         3.6314   -5.9068    0.0399 H         1 <0>         0.1400
     54 H21         5.9453   -7.2601  -10.3621 H         1 <0>         0.1634
     55 H22         6.7959   -8.5504  -12.5705 H         1 <0>         0.1617
     56 H23         9.0566   -9.7238  -11.9596 H         1 <0>         0.2158
     57 H24         9.9528   -8.5791   -4.8339 H         1 <0>         0.3849
     58 H25         8.7631   -5.5188   -3.3431 H         1 <0>         0.4370
     59 H26         4.6939   -3.4135   -1.0674 H         1 <0>         0.4214
@<TRIPOS>BOND
     1    1    6 ar
     2    1    2 ar
     3    1   36 1
     4    2    3 ar
     5    2   37 1
     6    3    4 ar
     7    3   38 1
     8    4    5 ar
     9    5    6 ar
    10    5    7 1
    11    6   39 1
    12    7    8 1
    13    8    9 1
    14    8   40 1
    15    8   41 1
    16    9   10 1
    17    9   20 1
    18    9   11 1
    19   11   12 1
    20   11   42 1
    21   11   43 1
    22   12   13 1
    23   12   44 1
    24   12   45 1
    25   13   14 1
    26   13   19 1
    27   13   15 1
    28   15   16 1
    29   15   46 1
    30   15   47 1
    31   16   17 1
    32   16   21 1
    33   17   18 1
    34   17   48 1
    35   17   49 1
    36   18   19 1
    37   18   50 1
    38   18   51 1
    39   19   20 1
    40   19   59 1
    41   20   52 1
    42   20   53 1
    43   21   26 2
    44   21   22 1
    45   22   23 1
    46   22   58 1
    47   23   24 1
    48   23   35 2
    49   24   29 1
    50   24   25 1
    51   25   26 1
    52   25   27 2
    53   27   28 1
    54   28   29 2
    55   28   30 1
    56   30   34 1
    57   30   31 2
    58   31   32 1
    59   31   54 1
    60   32   33 2
    61   32   55 1
    62   33   34 1
    63   33   56 1
    64   35   57 1
