@<TRIPOS>MOLECULE
CHEMBL609603
   35    37     0     0     0
SMALL
USER_CHARGES

@<TRIPOS>ATOM
      1 C1         -0.0167    1.3780    0.0096 C.ar      1 <0>        -0.1160
      2 C2          1.1709    2.0861    0.0021 C.ar      1 <0>        -0.0963
      3 C3          2.3773    1.4123   -0.0135 C.ar      1 <0>        -0.1120
      4 C4          2.3967    0.0287   -0.0210 C.ar      1 <0>        -0.0197
      5 C5          1.2083   -0.6792   -0.0130 C.ar      1 <0>        -0.1050
      6 C6          0.0021   -0.0041    0.0020 C.ar      1 <0>        -0.0852
      7 C7          1.2286   -2.1860   -0.0218 C.3       1 <0>         0.1591
      8 N1          1.4887   -2.6787    1.3331 N.am      1 <0>        -0.6981
      9 C8          1.5517   -4.0045    1.5675 C.2       1 <0>         0.5877
     10 O1          1.3929   -4.7905    0.6557 O.2       1 <0>        -0.4864
     11 C9          1.8160   -4.5050    2.9440 C.ar      1 <0>         0.3847
     12 N2          1.8833   -5.8098    3.1728 N.ar      1 <0>        -0.5339
     13 C10         2.1205   -6.2588    4.4058 C.ar      1 <0>         0.4879
     14 N3          2.2895   -5.3950    5.4062 N.ar      1 <0>        -0.5799
     15 C11         2.2213   -4.0897    5.1729 C.ar      1 <0>         0.6142
     16 N4          1.9895   -3.6451    3.9403 N.ar      1 <0>        -0.5877
     17 N5          2.3962   -3.1936    6.2082 N.pl3     1 <0>        -0.7962
     18 C12         2.1951   -7.7086    4.6619 C.2       1 <0>         0.0043
     19 C13         2.4244   -8.2966    5.8686 C.2       1 <0>        -0.1120
     20 C14         2.4115   -9.6862    5.6509 C.2       1 <0>        -0.2280
     21 C15         2.1774   -9.8787    4.3360 C.2       1 <0>         0.0063
     22 O2          2.0424   -8.6833    3.7435 O.3       1 <0>        -0.1459
     23 Cl1         3.9119   -0.8184   -0.0411 Cl        1 <0>        -0.0587
     24 H1         -0.9592    1.9049    0.0259 H         1 <0>         0.1332
     25 H2          1.1556    3.1659    0.0080 H         1 <0>         0.1350
     26 H3          3.3048    1.9655   -0.0201 H         1 <0>         0.1366
     27 H4         -0.9258   -0.5566    0.0079 H         1 <0>         0.1361
     28 H5          0.2643   -2.5603   -0.3656 H         1 <0>         0.0885
     29 H6          2.0139   -2.5349   -0.6923 H         1 <0>         0.0894
     30 H7          1.6155   -2.0509    2.0615 H         1 <0>         0.4139
     31 H8          2.5688   -3.5175    7.1061 H         1 <0>         0.4225
     32 H9          2.3464   -2.2400    6.0379 H         1 <0>         0.4226
     33 H10         2.5851   -7.7934    6.8106 H         1 <0>         0.1637
     34 H11         2.5612  -10.4540    6.3954 H         1 <0>         0.1603
     35 H12         2.1066  -10.8371    3.8431 H         1 <0>         0.2150
@<TRIPOS>BOND
     1    1    6 ar
     2    1    2 ar
     3    1   24 1
     4    2    3 ar
     5    2   25 1
     6    3    4 ar
     7    3   26 1
     8    4    5 ar
     9    4   23 1
    10    5    6 ar
    11    5    7 1
    12    6   27 1
    13    7    8 1
    14    7   28 1
    15    7   29 1
    16    8    9 am
    17    8   30 1
    18    9   10 2
    19    9   11 1
    20   11   16 ar
    21   11   12 ar
    22   12   13 ar
    23   13   14 ar
    24   13   18 1
    25   14   15 ar
    26   15   16 ar
    27   15   17 1
    28   17   31 1
    29   17   32 1
    30   18   22 1
    31   18   19 2
    32   19   20 1
    33   19   33 1
    34   20   21 2
    35   20   34 1
    36   21   22 1
    37   21   35 1
