@<TRIPOS>MOLECULE
CHEMBL283939
   63    66     0     0     0
SMALL
USER_CHARGES

@<TRIPOS>ATOM
      1 C1         -0.0178    1.4608    0.0101 C.3       1 <0>         0.0860
      2 N1          0.0021   -0.0041    0.0020 N.am      1 <0>        -0.5115
      3 C2         -1.1900   -0.7127    0.0039 C.2       1 <0>         0.3245
      4 C3         -1.1420   -2.1045   -0.0039 C.2       1 <0>        -0.1451
      5 C4          0.1120   -2.7485   -0.0130 C.2       1 <0>         0.5935
      6 O1          0.1797   -3.9649   -0.0203 O.2       1 <0>        -0.5101
      7 N2          1.2364   -2.0030   -0.0140 N.am      1 <0>        -0.5515
      8 C5          1.1774   -0.6603   -0.0127 C.2       1 <0>         0.7082
      9 O2          2.2123   -0.0218   -0.0196 O.2       1 <0>        -0.5326
     10 C6          2.5420   -2.6674   -0.0229 C.3       1 <0>         0.0838
     11 N3         -2.4534   -2.5433   -0.0000 N.pl3     1 <0>        -0.4045
     12 C7         -3.2411   -1.4276    0.0098 C.2       1 <0>         0.3233
     13 N4         -2.4710   -0.3521    0.0120 N.2       1 <0>        -0.4855
     14 C8         -4.7052   -1.4227    0.0168 C.2       1 <0>        -0.1092
     15 C9         -5.3755   -0.2527    0.0264 C.2       1 <0>        -0.0268
     16 C10        -6.8465   -0.2478    0.0335 C.ar      1 <0>         0.0018
     17 C11        -7.5516   -1.4560    0.0361 C.ar      1 <0>        -0.2193
     18 C12        -8.9339   -1.4476    0.0432 C.ar      1 <0>         0.1498
     19 C13        -9.6244   -0.2386    0.0478 C.ar      1 <0>         0.0397
     20 C14        -8.9259    0.9657    0.0452 C.ar      1 <0>         0.1496
     21 C15        -7.5435    0.9649    0.0434 C.ar      1 <0>        -0.2079
     22 O3         -9.6044    2.1443    0.0496 O.3       1 <0>        -0.3009
     23 C16        -8.8247    3.3418    0.0465 C.3       1 <0>         0.0225
     24 O4        -10.9841   -0.2341    0.0543 O.3       1 <0>        -0.3124
     25 C17       -11.6267   -0.2333    1.3307 C.3       1 <0>         0.0355
     26 O5         -9.6202   -2.6217    0.0454 O.3       1 <0>        -0.2999
     27 C18        -8.8484   -3.8243    0.0400 C.3       1 <0>         0.0225
     28 C19        -2.9095   -3.9354   -0.0058 C.3       1 <0>         0.1078
     29 C20        -3.0613   -4.4284    1.4346 C.3       1 <0>        -0.0915
     30 C21        -3.5305   -5.8605    1.4286 C.ar      1 <0>        -0.0879
     31 C22        -4.8833   -6.1446    1.4279 C.ar      1 <0>        -0.1149
     32 C23        -5.3137   -7.4582    1.4224 C.ar      1 <0>        -0.1182
     33 C24        -4.3913   -8.4877    1.4172 C.ar      1 <0>        -0.1171
     34 C25        -3.0384   -8.2037    1.4170 C.ar      1 <0>        -0.1161
     35 C26        -2.6080   -6.8900    1.4181 C.ar      1 <0>        -0.1073
     36 H1          1.0048    1.8381    0.0023 H         1 <0>         0.1032
     37 H2         -0.5450    1.8219   -0.8730 H         1 <0>         0.0792
     38 H3         -0.5280    1.8123    0.9069 H         1 <0>         0.0793
     39 H4          2.8615   -2.8269   -1.0528 H         1 <0>         0.0767
     40 H5          3.2716   -2.0416    0.4910 H         1 <0>         0.0966
     41 H6          2.4644   -3.6280    0.4863 H         1 <0>         0.0950
     42 H7         -5.2483   -2.3562    0.0144 H         1 <0>         0.1402
     43 H8         -4.8324    0.6808    0.0289 H         1 <0>         0.1447
     44 H9         -7.0166   -2.3942    0.0323 H         1 <0>         0.1379
     45 H10        -7.0024    1.8995    0.0455 H         1 <0>         0.1425
     46 H11        -8.1913    3.3652    0.9333 H         1 <0>         0.0590
     47 H12        -8.2004    3.3666   -0.8466 H         1 <0>         0.0602
     48 H13        -9.4876    4.2070    0.0507 H         1 <0>         0.1050
     49 H14       -12.7079   -0.2295    1.1931 H         1 <0>         0.0943
     50 H15       -11.3341   -1.1248    1.8854 H         1 <0>         0.0452
     51 H16       -11.3282    0.6552    1.8871 H         1 <0>         0.0455
     52 H17        -9.5171   -4.6851    0.0424 H         1 <0>         0.1053
     53 H18        -8.2243   -3.8515   -0.8533 H         1 <0>         0.0588
     54 H19        -8.2152   -3.8536    0.9267 H         1 <0>         0.0571
     55 H20        -3.8709   -4.0007   -0.5154 H         1 <0>         0.1021
     56 H21        -2.1795   -4.5548   -0.5268 H         1 <0>         0.1116
     57 H22        -2.0999   -4.3632    1.9441 H         1 <0>         0.0839
     58 H23        -3.7914   -3.8090    1.9556 H         1 <0>         0.0813
     59 H24        -5.6040   -5.3402    1.4320 H         1 <0>         0.1202
     60 H25        -6.3707   -7.6801    1.4226 H         1 <0>         0.1238
     61 H26        -4.7276   -9.5140    1.4136 H         1 <0>         0.1233
     62 H27        -2.3178   -9.0080    1.4132 H         1 <0>         0.1243
     63 H28        -1.5511   -6.6680    1.4142 H         1 <0>         0.1254
@<TRIPOS>BOND
     1    1    2 1
     2    1   36 1
     3    1   37 1
     4    1   38 1
     5    2    8 am
     6    2    3 1
     7    3   13 1
     8    3    4 2
     9    4    5 1
    10    4   11 1
    11    5    6 2
    12    5    7 am
    13    7    8 am
    14    7   10 1
    15    8    9 2
    16   10   39 1
    17   10   40 1
    18   10   41 1
    19   11   12 1
    20   11   28 1
    21   12   13 2
    22   12   14 1
    23   14   15 2
    24   14   42 1
    25   15   16 1
    26   15   43 1
    27   16   21 ar
    28   16   17 ar
    29   17   18 ar
    30   17   44 1
    31   18   19 ar
    32   18   26 1
    33   19   20 ar
    34   19   24 1
    35   20   21 ar
    36   20   22 1
    37   21   45 1
    38   22   23 1
    39   23   46 1
    40   23   47 1
    41   23   48 1
    42   24   25 1
    43   25   49 1
    44   25   50 1
    45   25   51 1
    46   26   27 1
    47   27   52 1
    48   27   53 1
    49   27   54 1
    50   28   29 1
    51   28   55 1
    52   28   56 1
    53   29   30 1
    54   29   57 1
    55   29   58 1
    56   30   35 ar
    57   30   31 ar
    58   31   32 ar
    59   31   59 1
    60   32   33 ar
    61   32   60 1
    62   33   34 ar
    63   33   61 1
    64   34   35 ar
    65   34   62 1
    66   35   63 1
