@<TRIPOS>MOLECULE
CHEMBL398272
   48    51     0     0     0
SMALL
USER_CHARGES

@<TRIPOS>ATOM
      1 C1         -0.0101    1.4637    0.0072 C.3       1 <0>        -0.0458
      2 N1          0.0088   -0.0052   -0.0003 N.4       1 <0>        -0.3894
      3 C2         -1.3697   -0.5123    0.0072 C.3       1 <0>        -0.0014
      4 C3         -1.3507   -2.0422   -0.0196 C.3       1 <0>         0.0267
      5 N2         -0.6205   -2.5409    1.1545 N.3       1 <0>        -0.5233
      6 C4          0.7542   -2.0212    1.1737 C.3       1 <0>         0.0173
      7 C5          0.7178   -0.4915    1.1907 C.3       1 <0>         0.0006
      8 C6         -0.6288   -4.0093    1.1950 C.3       1 <0>         0.0375
      9 C7         -0.0926   -4.4782    2.5230 C.2       1 <0>         0.5065
     10 O1          0.2615   -3.6690    3.3538 O.2       1 <0>        -0.4484
     11 N3         -0.0067   -5.7970    2.7874 N.am      1 <0>        -0.6516
     12 C8          0.5852   -6.2325    3.9685 C.ar      1 <0>         0.4177
     13 C9          0.7737   -7.5934    4.2032 C.ar      1 <0>        -0.2180
     14 C10         1.3723   -7.9844    5.4026 C.ar      1 <0>         0.2929
     15 N4          1.7412   -7.0485    6.2774 N.ar      1 <0>        -0.5101
     16 C11         1.5447   -5.7624    6.0176 C.ar      1 <0>         0.4420
     17 N5          0.9825   -5.3565    4.8840 N.ar      1 <0>        -0.4948
     18 C12         1.9662   -4.7561    7.0112 C.2       1 <0>         0.0117
     19 C13         1.8273   -3.4078    6.8909 C.2       1 <0>        -0.1197
     20 C14         2.3613   -2.8392    8.0624 C.2       1 <0>        -0.2285
     21 C15         2.7958   -3.8569    8.8334 C.2       1 <0>         0.0006
     22 O2          2.5504   -5.0127    8.1981 O.3       1 <0>        -0.1510
     23 C16         1.5936   -9.4160    5.6983 C.2       1 <0>         0.1053
     24 N6          1.3053  -10.4811    4.9636 N.2       1 <0>        -0.4707
     25 C17         1.5735  -11.6923    5.3845 C.2       1 <0>         0.0186
     26 C18         2.1603  -11.8732    6.6001 C.2       1 <0>        -0.1849
     27 S1          2.3291  -10.1764    7.1398 S.3       1 <0>         0.1050
     28 H1          1.0128    1.8403    0.0003 H         1 <0>         0.1245
     29 H2         -0.5361    1.8248   -0.8765 H         1 <0>         0.1242
     30 H3         -0.5209    1.8159    0.9034 H         1 <0>         0.1237
     31 H4         -1.8774   -0.1710    0.9093 H         1 <0>         0.1393
     32 H5         -1.8985   -0.1401   -0.8702 H         1 <0>         0.1379
     33 H6         -2.3732   -2.4191    0.0010 H         1 <0>         0.1263
     34 H7         -0.8550   -2.3839   -0.9282 H         1 <0>         0.0638
     35 H8          1.2672   -2.3827    2.0649 H         1 <0>         0.1395
     36 H9          1.2845   -2.3626    0.2847 H         1 <0>         0.0586
     37 H10         1.7365   -0.1038    1.1906 H         1 <0>         0.1365
     38 H11         0.1993   -0.1503    2.0867 H         1 <0>         0.1404
     39 H12        -1.6493   -4.3705    1.0672 H         1 <0>         0.1240
     40 H13        -0.0024   -4.3985    0.3924 H         1 <0>         0.0834
     41 H14        -0.3575   -6.4425    2.1540 H         1 <0>         0.4269
     42 H15         0.4637   -8.3281    3.4748 H         1 <0>         0.1655
     43 H16         1.3916   -2.8767    6.0575 H         1 <0>         0.1625
     44 H17         2.4137   -1.7868    8.2991 H         1 <0>         0.1573
     45 H18         3.2602   -3.7580    9.8034 H         1 <0>         0.2135
     46 H19         1.3294  -12.5455    4.7691 H         1 <0>         0.1778
     47 H20         2.4477  -12.7874    7.0982 H         1 <0>         0.2077
     48 H21         0.4822   -0.3310   -0.8296 H         1 <0>         0.4217
@<TRIPOS>BOND
     1    1    2 1
     2    1   28 1
     3    1   29 1
     4    1   30 1
     5    2    7 1
     6    2    3 1
     7    2   48 1
     8    3    4 1
     9    3   31 1
    10    3   32 1
    11    4    5 1
    12    4   33 1
    13    4   34 1
    14    5    6 1
    15    5    8 1
    16    6    7 1
    17    6   35 1
    18    6   36 1
    19    7   37 1
    20    7   38 1
    21    8    9 1
    22    8   39 1
    23    8   40 1
    24    9   10 2
    25    9   11 am
    26   11   12 1
    27   11   41 1
    28   12   17 ar
    29   12   13 ar
    30   13   14 ar
    31   13   42 1
    32   14   15 ar
    33   14   23 1
    34   15   16 ar
    35   16   17 ar
    36   16   18 1
    37   18   22 1
    38   18   19 2
    39   19   20 1
    40   19   43 1
    41   20   21 2
    42   20   44 1
    43   21   22 1
    44   21   45 1
    45   23   27 1
    46   23   24 2
    47   24   25 1
    48   25   26 2
    49   25   46 1
    50   26   27 1
    51   26   47 1
