@<TRIPOS>MOLECULE
CHEMBL359463
   44    47     0     0     0
SMALL
USER_CHARGES

@<TRIPOS>ATOM
      1 C1         -0.0187    1.5258    0.0104 C.3       1 <0>        -0.1470
      2 C2          0.0021   -0.0041    0.0020 C.3       1 <0>         0.2376
      3 C3          0.7421   -0.5109    1.2415 C.3       1 <0>        -0.1043
      4 C4          2.1149    0.1084    1.2952 C.ar      1 <0>        -0.0427
      5 C5          3.1958   -0.5077    0.6833 C.ar      1 <0>        -0.1565
      6 C6          4.4400    0.0899    0.7536 C.ar      1 <0>         0.1055
      7 N1          4.6049    1.2313    1.3931 N.ar      1 <0>        -0.4805
      8 C7          3.6000    1.8453    1.9864 C.ar      1 <0>         0.1031
      9 C8          2.3259    1.3106    1.9529 C.ar      1 <0>        -0.1704
     10 C9         -1.3789   -0.5136    0.0125 C.1       1 <0>        -0.0280
     11 C10        -2.4803   -0.9199    0.0208 C.1       1 <0>        -0.1955
     12 C11        -3.8237   -1.4156    0.0310 C.2       1 <0>         0.2068
     13 C12        -4.8651   -0.5346    0.0400 C.2       1 <0>         0.1300
     14 N2         -6.1449   -0.9995    0.0497 N.pl3     1 <0>        -0.2561
     15 C13        -6.3721   -2.3481    0.0503 C.2       1 <0>         0.2092
     16 C14        -5.2628   -3.2312    0.0400 C.cat     1 <0>         0.5690
     17 N3         -4.0403   -2.7422    0.0259 N.pl3     1 <0>        -0.4969
     18 N4         -5.4643   -4.6025    0.0408 N.pl3     1 <0>        -0.7505
     19 N5         -7.6820   -2.5343    0.0612 N.2       1 <0>        -0.4376
     20 C15        -8.3043   -1.3546    0.0676 C.2       1 <0>         0.3646
     21 N6         -7.4023   -0.3850    0.0610 N.2       1 <0>        -0.2212
     22 C16        -9.7693   -1.1601    0.0803 C.2       1 <0>         0.0025
     23 C17       -10.4153    0.0360    0.0815 C.2       1 <0>        -0.1059
     24 C18       -11.7953   -0.2480    0.0952 C.2       1 <0>        -0.2196
     25 C19       -11.9222   -1.5895    0.1016 C.2       1 <0>         0.0226
     26 O1        -10.6964   -2.1373    0.0866 O.3       1 <0>        -0.1533
     27 O2          0.6709   -0.4649   -1.1737 O.3       1 <0>        -0.5272
     28 H1          1.0039    1.9031    0.0027 H         1 <0>         0.0910
     29 H2         -0.5459    1.8868   -0.8726 H         1 <0>         0.0737
     30 H3         -0.5289    1.8773    0.9072 H         1 <0>         0.0807
     31 H4          0.1838   -0.2350    2.1361 H         1 <0>         0.0959
     32 H5          0.8346   -1.5958    1.1912 H         1 <0>         0.0916
     33 H6          3.0672   -1.4429    0.1587 H         1 <0>         0.1347
     34 H7          5.2871   -0.3836    0.2796 H         1 <0>         0.1590
     35 H8          3.7737    2.7788    2.5010 H         1 <0>         0.1585
     36 H9          1.5060    1.8207    2.4365 H         1 <0>         0.1345
     37 H10        -4.6751    0.5285    0.0399 H         1 <0>         0.2244
     38 H11        -6.3659   -4.9602    0.0484 H         1 <0>         0.4576
     39 H12        -4.7038   -5.2045    0.0337 H         1 <0>         0.4396
     40 H13        -9.9589    1.0148    0.0739 H         1 <0>         0.1661
     41 H14       -12.5993    0.4731    0.1001 H         1 <0>         0.1680
     42 H15       -12.8550   -2.1338    0.1122 H         1 <0>         0.2227
     43 H16         0.7216   -1.4279   -1.2455 H         1 <0>         0.3864
     44 H17        -3.2837   -3.3491    0.0151 H         1 <0>         0.4579
@<TRIPOS>BOND
     1    1    2 1
     2    1   28 1
     3    1   29 1
     4    1   30 1
     5    2    3 1
     6    2   10 1
     7    2   27 1
     8    3    4 1
     9    3   31 1
    10    3   32 1
    11    4    9 ar
    12    4    5 ar
    13    5    6 ar
    14    5   33 1
    15    6    7 ar
    16    6   34 1
    17    7    8 ar
    18    8    9 ar
    19    8   35 1
    20    9   36 1
    21   10   11 3
    22   11   12 1
    23   12   17 1
    24   12   13 2
    25   13   14 1
    26   13   37 1
    27   14   21 1
    28   14   15 1
    29   15   16 1
    30   15   19 2
    31   16   17 2
    32   16   18 1
    33   17   44 1
    34   18   38 1
    35   18   39 1
    36   19   20 1
    37   20   21 2
    38   20   22 1
    39   22   26 1
    40   22   23 2
    41   23   24 1
    42   23   40 1
    43   24   25 2
    44   24   41 1
    45   25   26 1
    46   25   42 1
    47   27   43 1
