@<TRIPOS>MOLECULE
CHEMBL572386
   56    61     0     0     0
SMALL
USER_CHARGES

@<TRIPOS>ATOM
      1 C1         -0.0167    1.3781    0.0096 C.ar      1 <0>        -0.1180
      2 C2          1.1709    2.0855    0.0021 C.ar      1 <0>        -0.1180
      3 C3          2.3773    1.4107   -0.0130 C.ar      1 <0>        -0.1140
      4 C4          2.3960    0.0285   -0.0201 C.ar      1 <0>        -0.0893
      5 C5          1.2084   -0.6789   -0.0117 C.ar      1 <0>        -0.1109
      6 C6          0.0021   -0.0041    0.0020 C.ar      1 <0>        -0.1172
      7 C7          3.7112   -0.7071   -0.0376 C.3       1 <0>        -0.0924
      8 C8          4.1714   -0.9633    1.3989 C.3       1 <0>         0.1338
      9 N1          5.4498   -1.6784    1.3820 N.pl3     1 <0>        -0.3364
     10 C9          6.5698   -1.2759    2.0073 C.2       1 <0>         0.1592
     11 C10         7.5464   -2.2049    1.7572 C.2       1 <0>        -0.2669
     12 C11         6.9384   -3.2424    0.9089 C.2       1 <0>         0.3022
     13 N2          5.6880   -2.8871    0.7171 N.2       1 <0>        -0.2478
     14 N3          7.7095   -4.2904    0.5160 N.2       1 <0>        -0.4472
     15 C12         8.9599   -4.3961    0.8692 C.2       1 <0>         0.6516
     16 N4          9.6091   -3.4825    1.6550 N.pl3     1 <0>        -0.3754
     17 C13         8.9577   -2.3736    2.1253 C.2       1 <0>         0.4111
     18 N5          9.8084   -1.6756    2.8435 N.2       1 <0>        -0.5118
     19 C14        10.9978   -2.2927    2.8583 C.2       1 <0>         0.3455
     20 N6         10.9203   -3.4001    2.1467 N.2       1 <0>        -0.2917
     21 C15        12.2042   -1.8098    3.5620 C.2       1 <0>         0.0427
     22 C16        13.4170   -2.4240    3.5797 C.2       1 <0>        -0.1366
     23 C17        14.2673   -1.6207    4.3652 C.2       1 <0>        -0.2191
     24 C18        13.5393   -0.5669    4.7838 C.2       1 <0>        -0.0048
     25 O1         12.2949   -0.6818    4.2926 O.3       1 <0>        -0.1533
     26 N7          9.6709   -5.4944    0.4250 N.am      1 <0>        -0.6458
     27 C19         9.0693   -6.4180   -0.3505 C.2       1 <0>         0.5071
     28 O2          7.9040   -6.2852   -0.6584 O.2       1 <0>        -0.4317
     29 C20         9.8449   -7.6158   -0.8350 C.3       1 <0>        -0.0931
     30 C21         8.9489   -8.4874   -1.6768 C.ar      1 <0>        -0.0644
     31 C22         8.2059   -9.4914   -1.0838 C.ar      1 <0>        -0.0965
     32 C23         7.3839  -10.2913   -1.8552 C.ar      1 <0>        -0.1044
     33 C24         7.3046  -10.0881   -3.2203 C.ar      1 <0>        -0.1051
     34 C25         8.0477   -9.0838   -3.8141 C.ar      1 <0>        -0.0329
     35 C26         8.8658   -8.2794   -3.0404 C.ar      1 <0>        -0.0927
     36 Cl1         7.9486   -8.8280   -5.5283 Cl        1 <0>        -0.0679
     37 H1         -0.9591    1.9053    0.0259 H         1 <0>         0.1231
     38 H2          1.1563    3.1654    0.0076 H         1 <0>         0.1238
     39 H3          3.3051    1.9634   -0.0196 H         1 <0>         0.1228
     40 H4          1.2231   -1.7588   -0.0176 H         1 <0>         0.1247
     41 H5         -0.9258   -0.5567    0.0082 H         1 <0>         0.1241
     42 H6          3.5884   -1.6586   -0.5549 H         1 <0>         0.0934
     43 H7          4.4573   -0.1052   -0.5563 H         1 <0>         0.0817
     44 H8          4.2941   -0.0118    1.9163 H         1 <0>         0.1102
     45 H9          3.4252   -1.5652    1.9176 H         1 <0>         0.1005
     46 H10         6.6806   -0.3801    2.6004 H         1 <0>         0.2007
     47 H11        13.6781   -3.3490    3.0872 H         1 <0>         0.1607
     48 H12        15.3061   -1.8131    4.5893 H         1 <0>         0.1596
     49 H13        13.8981    0.2384    5.4077 H         1 <0>         0.2139
     50 H14        10.6031   -5.6006    0.6713 H         1 <0>         0.4308
     51 H15        10.6930   -7.2820   -1.4328 H         1 <0>         0.1155
     52 H16        10.2058   -8.1856    0.0213 H         1 <0>         0.1168
     53 H17         8.2681   -9.6510   -0.0175 H         1 <0>         0.1288
     54 H18         6.8038  -11.0753   -1.3915 H         1 <0>         0.1345
     55 H19         6.6628  -10.7136   -3.8230 H         1 <0>         0.1344
     56 H20         9.4428   -7.4923   -3.5029 H         1 <0>         0.1324
@<TRIPOS>BOND
     1    1    6 ar
     2    1    2 ar
     3    1   37 1
     4    2    3 ar
     5    2   38 1
     6    3    4 ar
     7    3   39 1
     8    4    5 ar
     9    4    7 1
    10    5    6 ar
    11    5   40 1
    12    6   41 1
    13    7    8 1
    14    7   42 1
    15    7   43 1
    16    8    9 1
    17    8   44 1
    18    8   45 1
    19    9   13 1
    20    9   10 1
    21   10   11 2
    22   10   46 1
    23   11   17 1
    24   11   12 1
    25   12   13 2
    26   12   14 1
    27   14   15 2
    28   15   16 1
    29   15   26 1
    30   16   20 1
    31   16   17 1
    32   17   18 2
    33   18   19 1
    34   19   20 2
    35   19   21 1
    36   21   25 1
    37   21   22 2
    38   22   23 1
    39   22   47 1
    40   23   24 2
    41   23   48 1
    42   24   25 1
    43   24   49 1
    44   26   27 am
    45   26   50 1
    46   27   28 2
    47   27   29 1
    48   29   30 1
    49   29   51 1
    50   29   52 1
    51   30   35 ar
    52   30   31 ar
    53   31   32 ar
    54   31   53 1
    55   32   33 ar
    56   32   54 1
    57   33   34 ar
    58   33   55 1
    59   34   35 ar
    60   34   36 1
    61   35   56 1
