@<TRIPOS>MOLECULE
CHEMBL520036
   55    58     0     0     0
SMALL
USER_CHARGES

@<TRIPOS>ATOM
      1 C1         -0.2209    1.6523   -0.8070 C.3       1 <0>        -0.0738
      2 C2         -0.0893    0.1689   -0.5756 C.2       1 <0>         0.0918
      3 C3         -0.2434   -0.8283   -1.5461 C.2       1 <0>        -0.2643
      4 C4         -0.0487   -2.0257   -0.9485 C.2       1 <0>         0.1209
      5 N1          0.2209   -1.7916    0.3630 N.pl3     1 <0>        -0.3191
      6 N2          0.1938   -0.4055    0.5646 N.2       1 <0>        -0.2615
      7 C5          0.4826   -2.7585    1.3338 C.ar      1 <0>         0.5982
      8 N3          0.5922   -2.3870    2.5976 N.ar      1 <0>        -0.5196
      9 C6          0.8412   -3.2818    3.5528 C.ar      1 <0>         0.2706
     10 C7          0.9858   -4.6226    3.2025 C.ar      1 <0>        -0.2435
     11 C8          0.8630   -4.9723    1.8590 C.ar      1 <0>         0.4338
     12 N4          0.6089   -4.0228    0.9647 N.ar      1 <0>        -0.5281
     13 N5          0.9992   -6.2977    1.4603 N.am      1 <0>        -0.6541
     14 C9          0.9840   -6.6122    0.1499 C.2       1 <0>         0.5012
     15 O1          0.7588   -5.7543   -0.6770 O.2       1 <0>        -0.4678
     16 C10         1.2468   -8.0301   -0.2878 C.3       1 <0>        -0.1707
     17 C11         0.9632   -2.8565    4.9693 C.ar      1 <0>         0.1990
     18 C12         0.8106   -1.5141    5.3010 C.ar      1 <0>        -0.1703
     19 C13         0.9260   -1.1269    6.6276 C.ar      1 <0>        -0.0379
     20 C14         1.1906   -2.0958    7.5797 C.ar      1 <0>        -0.2186
     21 C15         1.3322   -3.4223    7.1806 C.ar      1 <0>         0.3995
     22 N6          1.2116   -3.7614    5.9081 N.ar      1 <0>        -0.5232
     23 N7          1.5985   -4.4013    8.1306 N.pl3     1 <0>        -0.6057
     24 C16         1.8612   -5.7795    7.6751 C.3       1 <0>         0.1251
     25 C17         3.0187   -6.4093    8.4637 C.3       1 <0>        -0.1686
     26 C18         4.1057   -5.3763    8.6822 C.3       1 <0>         0.0747
     27 O2          3.8671   -4.7161    9.9183 O.3       1 <0>        -0.3870
     28 C19         3.0392   -3.6123    9.9491 C.3       1 <0>         0.0546
     29 C20         1.6132   -4.0278    9.5329 C.3       1 <0>         0.0828
     30 C21        -0.1188   -3.3752   -1.6155 C.3       1 <0>        -0.0818
     31 H1          0.7495    2.0643   -1.0838 H         1 <0>         0.0816
     32 H2         -0.9349    1.8327   -1.6106 H         1 <0>         0.0821
     33 H3         -0.5726    2.1326    0.1061 H         1 <0>         0.0764
     34 H4         -0.4767   -0.6694   -2.5885 H         1 <0>         0.1586
     35 H5          1.1885   -5.3721    3.9532 H         1 <0>         0.1634
     36 H6          1.1053   -6.9958    2.1255 H         1 <0>         0.4253
     37 H7          0.3050   -8.5771   -0.3324 H         1 <0>         0.1001
     38 H8          1.7115   -8.0258   -1.2738 H         1 <0>         0.1014
     39 H9          1.9139   -8.5130    0.4262 H         1 <0>         0.0841
     40 H10         0.6049   -0.7819    4.5342 H         1 <0>         0.1487
     41 H11         0.8122   -0.0911    6.9117 H         1 <0>         0.1414
     42 H12         1.2865   -1.8259    8.6210 H         1 <0>         0.1373
     43 H13         0.9630   -6.3805    7.8165 H         1 <0>         0.0602
     44 H14         2.1169   -5.7636    6.6156 H         1 <0>         0.0917
     45 H15         2.6522   -6.7602    9.4284 H         1 <0>         0.0790
     46 H16         3.4251   -7.2506    7.9023 H         1 <0>         0.0871
     47 H17         5.0774   -5.8691    8.7127 H         1 <0>         0.0905
     48 H18         4.0875   -4.6493    7.8702 H         1 <0>         0.0529
     49 H19         3.0192   -3.2012   10.9584 H         1 <0>         0.1065
     50 H20         3.4135   -2.8580    9.2570 H         1 <0>         0.0449
     51 H21         0.9346   -3.1900    9.6927 H         1 <0>         0.0865
     52 H22         1.2919   -4.8756   10.1379 H         1 <0>         0.0883
     53 H23         0.8847   -3.6935   -1.8979 H         1 <0>         0.0849
     54 H24        -0.5489   -4.1002   -0.9245 H         1 <0>         0.0991
     55 H25        -0.7429   -3.3081   -2.5066 H         1 <0>         0.0715
@<TRIPOS>BOND
     1    1    2 1
     2    1   31 1
     3    1   32 1
     4    1   33 1
     5    2    6 2
     6    2    3 1
     7    3    4 2
     8    3   34 1
     9    4    5 1
    10    4   30 1
    11    5    6 1
    12    5    7 1
    13    7   12 ar
    14    7    8 ar
    15    8    9 ar
    16    9   10 ar
    17    9   17 1
    18   10   11 ar
    19   10   35 1
    20   11   12 ar
    21   11   13 1
    22   13   14 am
    23   13   36 1
    24   14   15 2
    25   14   16 1
    26   16   37 1
    27   16   38 1
    28   16   39 1
    29   17   22 ar
    30   17   18 ar
    31   18   19 ar
    32   18   40 1
    33   19   20 ar
    34   19   41 1
    35   20   21 ar
    36   20   42 1
    37   21   22 ar
    38   21   23 1
    39   23   29 1
    40   23   24 1
    41   24   25 1
    42   24   43 1
    43   24   44 1
    44   25   26 1
    45   25   45 1
    46   25   46 1
    47   26   27 1
    48   26   47 1
    49   26   48 1
    50   27   28 1
    51   28   29 1
    52   28   49 1
    53   28   50 1
    54   29   51 1
    55   29   52 1
    56   30   53 1
    57   30   54 1
    58   30   55 1
