@<TRIPOS>MOLECULE
CHEMBL1172276
   59    62     0     0     0
SMALL
USER_CHARGES

@<TRIPOS>ATOM
      1 C1         -0.0268    1.5240    0.0101 C.3       1 <0>        -0.1725
      2 C2          0.0022   -0.0057    0.0026 C.3       1 <0>         0.1102
      3 N1          0.6880   -0.4753   -1.2038 N.am      1 <0>        -0.5717
      4 C3          2.0857   -0.5862   -1.2174 C.ar      1 <0>         0.1431
      5 C4          2.6962   -1.7740   -0.8384 C.ar      1 <0>        -0.0496
      6 C5          4.0803   -1.8621   -0.8598 C.ar      1 <0>        -0.2007
      7 C6          4.8618   -0.7999   -1.2477 C.ar      1 <0>         0.1953
      8 C7          4.2725    0.4291   -1.6414 C.ar      1 <0>         0.0850
      9 C8          2.8627    0.4819   -1.6128 C.ar      1 <0>        -0.1155
     10 S1          2.5341    2.1372   -2.1682 S.3       1 <0>         0.0376
     11 C9          4.2341    2.6366   -2.4030 C.2       1 <0>         0.3586
     12 N2          4.8932    1.5591   -2.0464 N.2       1 <0>        -0.4831
     13 N3          4.7299    3.8541   -2.8397 N.am      1 <0>        -0.6152
     14 C10         6.0602    4.0386   -2.9525 C.2       1 <0>         0.5545
     15 O1          6.8249    3.1366   -2.6710 O.2       1 <0>        -0.4547
     16 C11         6.5892    5.3375   -3.4185 C.ar      1 <0>        -0.1294
     17 C12         5.7140    6.3773   -3.7372 C.ar      1 <0>        -0.0883
     18 C13         6.2144    7.5874   -4.1711 C.ar      1 <0>        -0.1099
     19 C14         7.5805    7.7717   -4.2908 C.ar      1 <0>        -0.0795
     20 C15         8.4535    6.7451   -3.9771 C.ar      1 <0>        -0.1010
     21 C16         7.9666    5.5319   -3.5365 C.ar      1 <0>        -0.0523
     22 C17         8.1199    9.0964   -4.7655 C.3       1 <0>         0.1605
     23 N4          8.3490    9.9716   -3.6132 N.am      1 <0>        -0.6177
     24 C18         7.3462   10.8872   -3.0565 C.3       1 <0>         0.1005
     25 C19         7.8596   11.2525   -1.6460 C.3       1 <0>        -0.1328
     26 C20         9.3831   11.0370   -1.7995 C.3       1 <0>        -0.1564
     27 C21         9.5028   10.0349   -2.9264 C.2       1 <0>         0.5172
     28 O2         10.4961    9.3852   -3.1756 O.2       1 <0>        -0.5263
     29 O3          6.2158   -0.9285   -1.2538 O.3       1 <0>        -0.2904
     30 C22         6.7495   -2.1900   -0.8465 C.3       1 <0>         0.0194
     31 C23        -0.0245   -0.8007   -2.3005 C.2       1 <0>         0.5217
     32 O4         -1.2234   -0.6171   -2.3215 O.2       1 <0>        -0.5307
     33 C24         0.6681   -1.3927   -3.5009 C.3       1 <0>        -0.1778
     34 H1          0.9938    1.9067    0.0000 H         1 <0>         0.0585
     35 H2         -0.5577    1.8816   -0.8722 H         1 <0>         0.0611
     36 H3         -0.5371    1.8733    0.9076 H         1 <0>         0.0707
     37 H4          0.5330   -0.3634    0.8848 H         1 <0>         0.0789
     38 H5         -1.0184   -0.3885    0.0126 H         1 <0>         0.0923
     39 H6          2.1000   -2.6200   -0.5300 H         1 <0>         0.1478
     40 H7          4.5548   -2.7863   -0.5645 H         1 <0>         0.1483
     41 H8          4.1197    4.5738   -3.0644 H         1 <0>         0.4275
     42 H9          4.6474    6.2346   -3.6445 H         1 <0>         0.1270
     43 H10         5.5384    8.3926   -4.4183 H         1 <0>         0.1321
     44 H11         9.5187    6.8954   -4.0730 H         1 <0>         0.1376
     45 H12         8.6493    4.7330   -3.2873 H         1 <0>         0.1410
     46 H13         9.0601    8.9376   -5.2937 H         1 <0>         0.0963
     47 H14         7.3995    9.5621   -5.4380 H         1 <0>         0.0936
     48 H15         7.2691   11.7825   -3.6734 H         1 <0>         0.0754
     49 H16         6.3783   10.3905   -2.9886 H         1 <0>         0.0789
     50 H17         7.6349   12.2918   -1.4062 H         1 <0>         0.0928
     51 H18         7.4445   10.5816   -0.8939 H         1 <0>         0.0824
     52 H19         9.8762   11.9729   -2.0621 H         1 <0>         0.1063
     53 H20         9.8047   10.6270   -0.8817 H         1 <0>         0.1027
     54 H21         7.8378   -2.1575   -0.8973 H         1 <0>         0.1059
     55 H22         6.4397   -2.4023    0.1767 H         1 <0>         0.0604
     56 H23         6.3780   -2.9724   -1.5084 H         1 <0>         0.0607
     57 H24         1.7183   -1.5655   -3.2657 H         1 <0>         0.0787
     58 H25         0.1943   -2.3384   -3.7640 H         1 <0>         0.0989
     59 H26         0.5927   -0.7024   -4.3410 H         1 <0>         0.0962
@<TRIPOS>BOND
     1    1    2 1
     2    1   34 1
     3    1   35 1
     4    1   36 1
     5    2    3 1
     6    2   37 1
     7    2   38 1
     8    3    4 1
     9    3   31 am
    10    4    9 ar
    11    4    5 ar
    12    5    6 ar
    13    5   39 1
    14    6    7 ar
    15    6   40 1
    16    7    8 ar
    17    7   29 1
    18    8   12 1
    19    8    9 ar
    20    9   10 1
    21   10   11 1
    22   11   12 2
    23   11   13 1
    24   13   14 am
    25   13   41 1
    26   14   15 2
    27   14   16 1
    28   16   21 ar
    29   16   17 ar
    30   17   18 ar
    31   17   42 1
    32   18   19 ar
    33   18   43 1
    34   19   20 ar
    35   19   22 1
    36   20   21 ar
    37   20   44 1
    38   21   45 1
    39   22   23 1
    40   22   46 1
    41   22   47 1
    42   23   27 am
    43   23   24 1
    44   24   25 1
    45   24   48 1
    46   24   49 1
    47   25   26 1
    48   25   50 1
    49   25   51 1
    50   26   27 1
    51   26   52 1
    52   26   53 1
    53   27   28 2
    54   29   30 1
    55   30   54 1
    56   30   55 1
    57   30   56 1
    58   31   32 2
    59   31   33 1
    60   33   57 1
    61   33   58 1
    62   33   59 1
