@<TRIPOS>MOLECULE
CHEMBL489126
   50    54     0     0     0
SMALL
USER_CHARGES

@<TRIPOS>ATOM
      1 C1         -0.0173    1.4248    0.0099 C.3       1 <0>         0.0264
      2 O1          0.0021   -0.0041    0.0020 O.3       1 <0>        -0.3120
      3 C2         -1.2003   -0.6375    0.0101 C.ar      1 <0>         0.1490
      4 C3         -2.3748    0.1022    0.0196 C.ar      1 <0>        -0.2164
      5 C4         -3.5978   -0.5406    0.0283 C.ar      1 <0>        -0.0582
      6 C5         -3.6556   -1.9211    0.0276 C.ar      1 <0>        -0.1697
      7 C6         -2.4838   -2.6660    0.0182 C.ar      1 <0>         0.1820
      8 C7         -1.2545   -2.0223    0.0032 C.ar      1 <0>        -0.1706
      9 N1         -2.5426   -4.0661    0.0180 N.am      1 <0>        -0.4623
     10 C8         -3.6994   -4.8256    0.0211 C.ar      1 <0>         0.3943
     11 C9         -3.3010   -6.1690    0.0197 C.ar      1 <0>        -0.0660
     12 C10        -4.2751   -7.1519    0.0223 C.ar      1 <0>         0.2212
     13 N2         -5.5502   -6.7882    0.0260 N.ar      1 <0>        -0.5427
     14 C11        -5.8954   -5.5091    0.0272 C.ar      1 <0>         0.5875
     15 N3         -4.9935   -4.5385    0.0253 N.ar      1 <0>        -0.5568
     16 N4         -7.2410   -5.1762    0.0312 N.pl3     1 <0>        -0.6642
     17 C12        -8.2568   -6.2318    0.0338 C.3       1 <0>         0.0971
     18 C13        -9.4572   -6.0595   -0.8990 C.3       1 <0>        -0.1945
     19 C14        -9.6313   -5.8882    0.6114 C.3       1 <0>        -0.1898
     20 N5         -1.9078   -6.1756    0.0157 N.am      1 <0>        -0.5198
     21 C15        -1.4828   -4.8969    0.0089 C.2       1 <0>         0.6894
     22 O2         -0.3178   -4.5460   -0.0011 O.2       1 <0>        -0.5080
     23 C16        -1.0535   -7.3657    0.0135 C.3       1 <0>         0.1778
     24 C17        -0.7646   -7.7740   -1.4081 C.ar      1 <0>        -0.2000
     25 C18        -1.6086   -8.6561   -2.0605 C.ar      1 <0>         0.1495
     26 C19        -1.3421   -9.0306   -3.3667 C.ar      1 <0>        -0.1672
     27 C20        -0.2340   -8.5240   -4.0191 C.ar      1 <0>        -0.0481
     28 C21         0.6096   -7.6435   -3.3685 C.ar      1 <0>        -0.1680
     29 C22         0.3417   -7.2628   -2.0644 C.ar      1 <0>         0.1570
     30 F1          1.1632   -6.3974   -1.4307 F         1 <0>        -0.1114
     31 F2         -2.6916   -9.1518   -1.4229 F         1 <0>        -0.1267
     32 H1          1.0053    1.8021    0.0021 H         1 <0>         0.1025
     33 H2         -0.5445    1.7859   -0.8732 H         1 <0>         0.0570
     34 H3         -0.5275    1.7763    0.9067 H         1 <0>         0.0572
     35 H4         -2.3326    1.1813    0.0204 H         1 <0>         0.1328
     36 H5         -4.5103    0.0371    0.0360 H         1 <0>         0.1346
     37 H6         -4.6129   -2.4211    0.0348 H         1 <0>         0.1539
     38 H7         -0.3418   -2.5994   -0.0090 H         1 <0>         0.1649
     39 H8         -4.0016   -8.1967    0.0209 H         1 <0>         0.1805
     40 H9         -7.5100   -4.2442    0.0321 H         1 <0>         0.4161
     41 H10        -7.8831   -7.2435    0.1920 H         1 <0>         0.1457
     42 H11        -9.4912   -5.1606   -1.5147 H         1 <0>         0.0969
     43 H12        -9.8734   -6.9578   -1.3549 H         1 <0>         0.1045
     44 H13       -10.1620   -6.6738    1.1491 H         1 <0>         0.1061
     45 H14        -9.7798   -4.8767    0.9894 H         1 <0>         0.0977
     46 H15        -0.1171   -7.1418    0.5246 H         1 <0>         0.1167
     47 H16        -1.5631   -8.1798    0.5289 H         1 <0>         0.1120
     48 H17        -2.0003   -9.7191   -3.8758 H         1 <0>         0.1471
     49 H18        -0.0270   -8.8166   -5.0379 H         1 <0>         0.1477
     50 H19         1.4756   -7.2487   -3.8790 H         1 <0>         0.1469
@<TRIPOS>BOND
     1    1    2 1
     2    1   32 1
     3    1   33 1
     4    1   34 1
     5    2    3 1
     6    3    8 ar
     7    3    4 ar
     8    4    5 ar
     9    4   35 1
    10    5    6 ar
    11    5   36 1
    12    6    7 ar
    13    6   37 1
    14    7    8 ar
    15    7    9 1
    16    8   38 1
    17    9   21 am
    18    9   10 1
    19   10   15 ar
    20   10   11 ar
    21   11   12 ar
    22   11   20 1
    23   12   13 ar
    24   12   39 1
    25   13   14 ar
    26   14   15 ar
    27   14   16 1
    28   16   17 1
    29   16   40 1
    30   17   19 1
    31   17   18 1
    32   17   41 1
    33   18   19 1
    34   18   42 1
    35   18   43 1
    36   19   44 1
    37   19   45 1
    38   20   21 am
    39   20   23 1
    40   21   22 2
    41   23   24 1
    42   23   46 1
    43   23   47 1
    44   24   29 ar
    45   24   25 ar
    46   25   26 ar
    47   25   31 1
    48   26   27 ar
    49   26   48 1
    50   27   28 ar
    51   27   49 1
    52   28   29 ar
    53   28   50 1
    54   29   30 1
