@<TRIPOS>MOLECULE
CHEMBL608464
   61    64     0     0     0
SMALL
USER_CHARGES

@<TRIPOS>ATOM
      1 C1         -0.0164    1.3599    0.0095 C.2       1 <0>         0.2574
      2 N1          1.2003    1.8205    0.0004 N.2       1 <0>        -0.4522
      3 C2          2.0747    0.7847   -0.0135 C.ar      1 <0>        -0.1382
      4 C3          3.4762    0.6765   -0.0275 C.ar      1 <0>         0.5428
      5 N2          4.0192   -0.5358   -0.0392 N.ar      1 <0>        -0.6303
      6 C4          3.2640   -1.6252   -0.0378 C.ar      1 <0>         0.5704
      7 N3          1.9440   -1.5694   -0.0249 N.ar      1 <0>        -0.5558
      8 C5          1.3163   -0.3974   -0.0126 C.ar      1 <0>         0.3518
      9 N4          0.0021   -0.0041    0.0020 N.pl3     1 <0>        -0.4702
     10 C6         -1.1670   -0.8869    0.0089 C.3       1 <0>         0.3134
     11 C7         -1.5542   -1.2553    1.4583 C.3       1 <0>         0.0789
     12 H1         -1.1954   -0.4968    2.1540 H         1 <0>         0.0859
     13 C8         -3.0989   -1.2842    1.4384 C.3       1 <0>         0.0473
     14 H2         -3.5037   -0.5400    2.1242 H         1 <0>         0.0871
     15 C9         -3.4622   -0.9299   -0.0207 C.3       1 <0>         0.0503
     16 H3         -3.6138   -1.8375   -0.6051 H         1 <0>         0.1001
     17 O1         -2.3213   -0.1968   -0.5174 O.3       1 <0>        -0.3465
     18 C10        -4.7178   -0.0565   -0.0599 C.3       1 <0>         0.0823
     19 O2         -5.1032    0.1629   -1.4183 O.3       1 <0>        -0.5634
     20 O3         -3.5797   -2.5872    1.7747 O.3       1 <0>        -0.5386
     21 O4         -1.0311   -2.5390    1.8055 O.3       1 <0>        -0.5247
     22 O5          3.8669   -2.8386   -0.0506 O.3       1 <0>        -0.2832
     23 C11         5.2958   -2.8529   -0.0648 C.3       1 <0>         0.0775
     24 C12         5.7912   -4.3004   -0.0778 C.3       1 <0>        -0.1213
     25 C13         7.3210   -4.3158   -0.0930 C.3       1 <0>        -0.1153
     26 C14         7.8165   -5.7633   -0.1060 C.3       1 <0>        -0.1143
     27 C15         9.3463   -5.7786   -0.1212 C.3       1 <0>        -0.0871
     28 C16         9.8495   -5.1669   -1.4301 C.3       1 <0>        -0.1163
     29 C17        11.3793   -5.1822   -1.4453 C.3       1 <0>        -0.1209
     30 C18        11.8760   -6.6249   -1.3326 C.3       1 <0>        -0.1208
     31 C19        11.3728   -7.2367   -0.0236 C.3       1 <0>        -0.1205
     32 C20         9.8430   -7.2214   -0.0084 C.3       1 <0>        -0.1152
     33 N5          4.2726    1.8079   -0.0295 N.pl3     1 <0>        -0.8124
     34 H4         -0.9091    1.9676    0.0254 H         1 <0>         0.2238
     35 H5         -0.9654   -1.7869   -0.5722 H         1 <0>         0.1243
     36 H6         -5.5266   -0.5590    0.4706 H         1 <0>         0.0668
     37 H7         -4.5095    0.9008    0.4179 H         1 <0>         0.0611
     38 H8         -5.8940    0.7102   -1.5193 H         1 <0>         0.3865
     39 H9         -4.5438   -2.6622    1.7773 H         1 <0>         0.3870
     40 H10        -1.2445   -2.8203    2.7057 H         1 <0>         0.3903
     41 H11         5.6555   -2.3378   -0.9555 H         1 <0>         0.0702
     42 H12         5.6731   -2.3477    0.8244 H         1 <0>         0.0702
     43 H13         5.4315   -4.8156    0.8129 H         1 <0>         0.0745
     44 H14         5.4139   -4.8056   -0.9669 H         1 <0>         0.0745
     45 H15         7.6807   -3.8006   -0.9837 H         1 <0>         0.0685
     46 H16         7.6983   -3.8106    0.7962 H         1 <0>         0.0656
     47 H17         7.4568   -6.2784    0.7847 H         1 <0>         0.0641
     48 H18         7.4392   -6.2685   -0.9951 H         1 <0>         0.0641
     49 H19         9.7239   -5.1976    0.7202 H         1 <0>         0.0695
     50 H20         9.4719   -5.7479   -2.2715 H         1 <0>         0.0612
     51 H21         9.4956   -4.1390   -1.5104 H         1 <0>         0.0635
     52 H22        11.7378   -4.7463   -2.3779 H         1 <0>         0.0600
     53 H23        11.7569   -4.6011   -0.6039 H         1 <0>         0.0604
     54 H24        11.4985   -7.2060   -2.1740 H         1 <0>         0.0606
     55 H25        12.9659   -6.6359   -1.3434 H         1 <0>         0.0594
     56 H26        11.7267   -8.2645    0.0567 H         1 <0>         0.0602
     57 H27        11.7504   -6.6557    0.8178 H         1 <0>         0.0605
     58 H28         9.4845   -7.6572    0.9241 H         1 <0>         0.0608
     59 H29         9.4654   -7.8024   -0.8498 H         1 <0>         0.0614
     60 H30         3.8649    2.6880   -0.0212 H         1 <0>         0.4217
     61 H31         5.2386    1.7210   -0.0392 H         1 <0>         0.4111
@<TRIPOS>BOND
     1    1    9 1
     2    1    2 2
     3    1   34 1
     4    2    3 1
     5    3    8 ar
     6    3    4 ar
     7    4    5 ar
     8    4   33 1
     9    5    6 ar
    10    6    7 ar
    11    6   22 1
    12    7    8 ar
    13    8    9 1
    14    9   10 1
    15   10   17 1
    16   10   11 1
    17   10   35 1
    18   11   12 1
    19   11   13 1
    20   11   21 1
    21   13   14 1
    22   13   15 1
    23   13   20 1
    24   15   16 1
    25   15   17 1
    26   15   18 1
    27   18   19 1
    28   18   36 1
    29   18   37 1
    30   19   38 1
    31   20   39 1
    32   21   40 1
    33   22   23 1
    34   23   24 1
    35   23   41 1
    36   23   42 1
    37   24   25 1
    38   24   43 1
    39   24   44 1
    40   25   26 1
    41   25   45 1
    42   25   46 1
    43   26   27 1
    44   26   47 1
    45   26   48 1
    46   27   32 1
    47   27   28 1
    48   27   49 1
    49   28   29 1
    50   28   50 1
    51   28   51 1
    52   29   30 1
    53   29   52 1
    54   29   53 1
    55   30   31 1
    56   30   54 1
    57   30   55 1
    58   31   32 1
    59   31   56 1
    60   31   57 1
    61   32   58 1
    62   32   59 1
    63   33   60 1
    64   33   61 1
