@<TRIPOS>MOLECULE
CHEMBL177330
   31    34     0     0     0
SMALL
USER_CHARGES

@<TRIPOS>ATOM
      1 C1         -0.0167    1.3799    0.0096 C.ar      1 <0>        -0.0805
      2 C2          1.1936    2.0589    0.0017 C.ar      1 <0>        -0.1557
      3 C3          2.3749    1.3396   -0.0134 C.ar      1 <0>         0.1040
      4 N1          2.3648    0.0226   -0.0204 N.ar      1 <0>        -0.4634
      5 C4          1.2295   -0.6645   -0.0132 C.ar      1 <0>         0.1587
      6 C5          0.0021   -0.0041    0.0020 C.ar      1 <0>        -0.1222
      7 C6          1.2669   -2.1462   -0.0216 C.2       1 <0>         0.2401
      8 C7          2.4822   -2.8058   -0.0310 C.2       1 <0>        -0.1736
      9 C8          2.4808   -4.2130   -0.0387 C.2       1 <0>         0.3474
     10 N2          3.4375   -5.1276   -0.0488 N.2       1 <0>        -0.5173
     11 C9          2.8912   -6.3474   -0.0531 C.2       1 <0>         0.3533
     12 N3          1.5745   -6.2377   -0.0460 N.2       1 <0>        -0.3183
     13 N4          1.2764   -4.8691   -0.0366 N.pl3     1 <0>        -0.3589
     14 C10         0.1145   -4.1584   -0.0267 C.2       1 <0>         0.6527
     15 N5          0.1211   -2.8453   -0.0144 N.2       1 <0>        -0.5469
     16 N6         -1.0870   -4.8280   -0.0246 N.pl3     1 <0>        -0.8075
     17 C11         3.6425   -7.6201   -0.0647 C.2       1 <0>         0.0358
     18 C12         4.9959   -7.7475   -0.0666 C.2       1 <0>        -0.1259
     19 C13         5.2736   -9.1288   -0.0788 C.2       1 <0>        -0.2188
     20 C14         4.0881   -9.7697   -0.0836 C.2       1 <0>        -0.0074
     21 O1          3.1051   -8.8553   -0.0692 O.3       1 <0>        -0.1607
     22 H1         -0.9522    1.9193    0.0259 H         1 <0>         0.1414
     23 H2          1.2129    3.1387    0.0070 H         1 <0>         0.1411
     24 H3          3.3184    1.8651   -0.0200 H         1 <0>         0.1651
     25 H4         -0.9212   -0.5643    0.0082 H         1 <0>         0.1484
     26 H5          3.4106   -2.2540   -0.0328 H         1 <0>         0.1772
     27 H6         -1.1017   -5.7979   -0.0302 H         1 <0>         0.4249
     28 H7         -1.9196   -4.3304   -0.0176 H         1 <0>         0.4296
     29 H8          5.7187   -6.9450   -0.0605 H         1 <0>         0.1636
     30 H9          6.2514   -9.5872   -0.0840 H         1 <0>         0.1599
     31 H10         3.9515  -10.8410   -0.0934 H         1 <0>         0.2136
@<TRIPOS>BOND
     1    1    6 ar
     2    1    2 ar
     3    1   22 1
     4    2    3 ar
     5    2   23 1
     6    3    4 ar
     7    3   24 1
     8    4    5 ar
     9    5    6 ar
    10    5    7 1
    11    6   25 1
    12    7   15 1
    13    7    8 2
    14    8    9 1
    15    8   26 1
    16    9   13 1
    17    9   10 2
    18   10   11 1
    19   11   12 2
    20   11   17 1
    21   12   13 1
    22   13   14 1
    23   14   15 2
    24   14   16 1
    25   16   27 1
    26   16   28 1
    27   17   21 1
    28   17   18 2
    29   18   19 1
    30   18   29 1
    31   19   20 2
    32   19   30 1
    33   20   21 1
    34   20   31 1
