@<TRIPOS>MOLECULE
CHEMBL184411
   55    59     0     0     0
SMALL
USER_CHARGES

@<TRIPOS>ATOM
      1 C1         -8.4453   -6.7890   -4.6504 C.3       1 <0>        -0.1031
      2 C2         -7.6056   -5.9578   -3.7150 C.2       1 <0>         0.1121
      3 C3         -6.4838   -6.3612   -3.0881 C.2       1 <0>        -0.2947
      4 C4         -6.0074   -5.2899   -2.3113 C.2       1 <0>         0.0487
      5 N1         -6.8187   -4.2828   -2.4707 N.2       1 <0>        -0.2888
      6 O1         -7.8410   -4.6841   -3.3649 O.3       1 <0>        -0.0468
      7 C5         -4.7742   -5.3044   -1.4453 C.3       1 <0>         0.0694
      8 N2         -3.6394   -4.7561   -2.2000 N.4       1 <0>        -0.3825
      9 C6         -3.3455   -5.6261   -3.3586 C.3       1 <0>        -0.0103
     10 C7         -1.8026   -5.5963   -3.4944 C.3       1 <0>        -0.1395
     11 C8         -1.3578   -5.5691   -2.0084 C.3       1 <0>        -0.1374
     12 C9         -2.4461   -4.7065   -1.3354 C.3       1 <0>         0.0012
     13 H1         -2.0985   -3.6776   -1.2418 H         1 <0>         0.1433
     14 C10        -2.7800   -5.2740    0.0457 C.3       1 <0>         0.1071
     15 N3         -1.6271   -5.1069    0.9340 N.pl3     1 <0>        -0.5921
     16 C11        -1.4131   -3.8328    1.6247 C.3       1 <0>         0.0818
     17 C12        -0.7379   -6.1554    1.1212 C.2       1 <0>         0.4598
     18 C13         0.3458   -5.9977    1.9639 C.2       1 <0>        -0.2945
     19 C14         1.2270   -7.0792    2.1313 C.2       1 <0>         0.3770
     20 N4          2.3296   -7.2594    2.8428 N.2       1 <0>        -0.5291
     21 C15         2.7930   -8.4985    2.6439 C.2       1 <0>         0.3688
     22 N5          1.9978   -9.1338    1.8030 N.2       1 <0>        -0.3252
     23 N6          0.9746   -8.2442    1.4520 N.pl3     1 <0>        -0.3770
     24 C16        -0.1117   -8.3329    0.6365 C.2       1 <0>         0.6886
     25 N7         -0.9352   -7.3188    0.4892 N.2       1 <0>        -0.6059
     26 N8         -0.3553   -9.5049   -0.0395 N.pl3     1 <0>        -0.8031
     27 C17         4.0060   -9.0674    3.2680 C.2       1 <0>         0.0247
     28 C18         4.8300   -8.4271    4.1393 C.2       1 <0>        -0.1200
     29 C19         5.8503   -9.3382    4.4770 C.2       1 <0>        -0.2196
     30 C20         5.6013  -10.4777    3.8022 C.2       1 <0>        -0.0008
     31 O2          4.4837  -10.3122    3.0768 O.3       1 <0>        -0.1609
     32 H2         -9.2869   -6.1955   -5.0077 H         1 <0>         0.0949
     33 H3         -7.8385   -7.1063   -5.4985 H         1 <0>         0.1069
     34 H4         -8.8179   -7.6663   -4.1217 H         1 <0>         0.1080
     35 H5         -6.0294   -7.3377   -3.1678 H         1 <0>         0.1704
     36 H6         -4.9470   -4.6972   -0.5567 H         1 <0>         0.1540
     37 H7         -4.5514   -6.3290   -1.1475 H         1 <0>         0.1599
     38 H8         -3.6900   -6.6423   -3.1671 H         1 <0>         0.1354
     39 H9         -3.8134   -5.2293   -4.2595 H         1 <0>         0.1336
     40 H10        -1.4373   -6.4930   -3.9950 H         1 <0>         0.1183
     41 H11        -1.4739   -4.6979   -4.0169 H         1 <0>         0.0979
     42 H12        -1.3503   -6.5755   -1.5898 H         1 <0>         0.1175
     43 H13        -0.3784   -5.1014   -1.9078 H         1 <0>         0.1076
     44 H14        -3.6373   -4.7428    0.4592 H         1 <0>         0.0988
     45 H15        -3.0183   -6.3337   -0.0449 H         1 <0>         0.1163
     46 H16        -1.9587   -3.8349    2.5683 H         1 <0>         0.0716
     47 H17        -0.3491   -3.6999    1.8205 H         1 <0>         0.0904
     48 H18        -1.7722   -3.0156    0.9991 H         1 <0>         0.0763
     49 H19         0.5117   -5.0646    2.4817 H         1 <0>         0.1634
     50 H20         0.2445  -10.2598    0.0668 H         1 <0>         0.4301
     51 H21        -1.1270   -9.5770   -0.6227 H         1 <0>         0.4265
     52 H22         4.7233   -7.4155    4.5022 H         1 <0>         0.1634
     53 H23         6.6760   -9.1573    5.1492 H         1 <0>         0.1616
     54 H24         6.1995  -11.3761    3.8410 H         1 <0>         0.2156
     55 H25        -3.8631   -3.8269   -2.5236 H         1 <0>         0.4302
@<TRIPOS>BOND
     1    1    2 1
     2    1   32 1
     3    1   33 1
     4    1   34 1
     5    2    6 1
     6    2    3 2
     7    3    4 1
     8    3   35 1
     9    4    5 2
    10    4    7 1
    11    5    6 1
    12    7    8 1
    13    7   36 1
    14    7   37 1
    15    8   12 1
    16    8    9 1
    17    8   55 1
    18    9   10 1
    19    9   38 1
    20    9   39 1
    21   10   11 1
    22   10   40 1
    23   10   41 1
    24   11   12 1
    25   11   42 1
    26   11   43 1
    27   12   13 1
    28   12   14 1
    29   14   15 1
    30   14   44 1
    31   14   45 1
    32   15   16 1
    33   15   17 1
    34   16   46 1
    35   16   47 1
    36   16   48 1
    37   17   25 1
    38   17   18 2
    39   18   19 1
    40   18   49 1
    41   19   23 1
    42   19   20 2
    43   20   21 1
    44   21   22 2
    45   21   27 1
    46   22   23 1
    47   23   24 1
    48   24   25 2
    49   24   26 1
    50   26   50 1
    51   26   51 1
    52   27   31 1
    53   27   28 2
    54   28   29 1
    55   28   52 1
    56   29   30 2
    57   29   53 1
    58   30   31 1
    59   30   54 1
