@<TRIPOS>MOLECULE
CHEMBL604440
   56    59     0     0     0
SMALL
USER_CHARGES

@<TRIPOS>ATOM
      1 C1         -0.0187    1.5258    0.0104 C.3       1 <0>        -0.1679
      2 C2          0.0021   -0.0041    0.0020 C.3       1 <0>         0.1135
      3 N1         -1.3723   -0.5112    0.0124 N.am      1 <0>        -0.7271
      4 C3         -1.6006   -1.8394    0.0075 C.2       1 <0>         0.5160
      5 O1         -0.6682   -2.6149   -0.0056 O.2       1 <0>        -0.5033
      6 C4         -3.0144   -2.3611    0.0182 C.3       1 <0>         0.0316
      7 H1         -3.5805   -1.9494   -0.8174 H         1 <0>         0.1224
      8 C5         -3.7084   -2.0293    1.3638 C.3       1 <0>         0.0511
      9 H2         -3.0081   -2.1165    2.1945 H         1 <0>         0.0954
     10 C6         -4.8001   -3.1239    1.4442 C.3       1 <0>         0.0825
     11 H3         -4.8843   -3.5048    2.4620 H         1 <0>         0.0905
     12 C7         -4.2978   -4.2288    0.4946 C.3       1 <0>         0.3134
     13 O2         -3.0242   -3.8042   -0.0230 O.3       1 <0>        -0.3263
     14 N2         -4.1443   -5.4862    1.2305 N.pl3     1 <0>        -0.4737
     15 C8         -2.9966   -5.9535    1.7989 C.2       1 <0>         0.2711
     16 N3         -3.2189   -7.1007    2.3722 N.2       1 <0>        -0.4563
     17 C9         -4.5191   -7.4425    2.2093 C.ar      1 <0>        -0.1013
     18 C10        -5.1309   -6.4075    1.4794 C.ar      1 <0>         0.3137
     19 N4         -6.4223   -6.4970    1.1879 N.ar      1 <0>        -0.5338
     20 C11        -7.1314   -7.5463    1.5809 C.ar      1 <0>         0.5005
     21 N5         -6.5941   -8.5452    2.2757 N.ar      1 <0>        -0.5697
     22 C12        -5.3078   -8.5393    2.6016 C.ar      1 <0>         0.5156
     23 N6         -4.7575   -9.5824    3.3259 N.pl3     1 <0>        -0.8132
     24 C13        -8.5226   -7.6058    1.2465 C.1       1 <0>        -0.1081
     25 C14        -9.6631   -7.6546    0.9724 C.1       1 <0>        -0.0817
     26 C15       -11.0931   -7.7158    0.6287 C.3       1 <0>         0.1646
     27 N7        -11.6722   -8.9561    1.1617 N.3       1 <0>        -0.5356
     28 C16       -11.1065  -10.1338    0.4876 C.3       1 <0>         0.0145
     29 C17       -11.6915  -11.4030    1.1129 C.3       1 <0>         0.0641
     30 O3        -13.1180  -11.3598    1.0211 O.3       1 <0>        -0.3852
     31 C18       -13.7024  -10.2258    1.6676 C.3       1 <0>         0.0630
     32 C19       -13.1378   -8.9447    1.0479 C.3       1 <0>         0.0174
     33 O4         -6.0569   -2.6106    0.9981 O.3       1 <0>        -0.5313
     34 O5         -4.2936   -0.7261    1.3280 O.3       1 <0>        -0.5361
     35 H4          1.0039    1.9031    0.0027 H         1 <0>         0.0793
     36 H5         -0.5459    1.8868   -0.8726 H         1 <0>         0.0645
     37 H6         -0.5289    1.8773    0.9072 H         1 <0>         0.0637
     38 H7          0.5123   -0.3556   -0.8948 H         1 <0>         0.0731
     39 H8          0.5293   -0.3651    0.8851 H         1 <0>         0.0729
     40 H9         -2.1181    0.1091    0.0229 H         1 <0>         0.3979
     41 H10        -5.0029   -4.3610   -0.3260 H         1 <0>         0.1324
     42 H11        -2.0432   -5.4467    1.7763 H         1 <0>         0.2273
     43 H12        -3.8185   -9.5621    3.5683 H         1 <0>         0.4215
     44 H13        -5.3108  -10.3336    3.5911 H         1 <0>         0.4127
     45 H14       -11.6080   -6.8586    1.0625 H         1 <0>         0.1102
     46 H15       -11.2073   -7.6979   -0.4552 H         1 <0>         0.0708
     47 H16       -11.3571  -10.1017   -0.5727 H         1 <0>         0.0472
     48 H17       -10.0230  -10.1357    0.6063 H         1 <0>         0.0903
     49 H18       -11.3187  -12.2770    0.5788 H         1 <0>         0.1000
     50 H19       -11.3958  -11.4623    2.1604 H         1 <0>         0.0620
     51 H20       -14.7840  -10.2484    1.5346 H         1 <0>         0.1009
     52 H21       -13.4652  -10.2508    2.7312 H         1 <0>         0.0617
     53 H22       -13.5371   -8.0785    1.5756 H         1 <0>         0.0914
     54 H23       -13.4209   -8.8935   -0.0034 H         1 <0>         0.0485
     55 H24        -6.3912   -1.8738    1.5276 H         1 <0>         0.3972
     56 H25        -3.6563   -0.0124    1.1882 H         1 <0>         0.3844
@<TRIPOS>BOND
     1    1    2 1
     2    1   35 1
     3    1   36 1
     4    1   37 1
     5    2    3 1
     6    2   38 1
     7    2   39 1
     8    3    4 am
     9    3   40 1
    10    4    5 2
    11    4    6 1
    12    6    7 1
    13    6   13 1
    14    6    8 1
    15    8    9 1
    16    8   10 1
    17    8   34 1
    18   10   11 1
    19   10   12 1
    20   10   33 1
    21   12   13 1
    22   12   14 1
    23   12   41 1
    24   14   18 1
    25   14   15 1
    26   15   16 2
    27   15   42 1
    28   16   17 1
    29   17   22 ar
    30   17   18 ar
    31   18   19 ar
    32   19   20 ar
    33   20   21 ar
    34   20   24 1
    35   21   22 ar
    36   22   23 1
    37   23   43 1
    38   23   44 1
    39   24   25 3
    40   25   26 1
    41   26   27 1
    42   26   45 1
    43   26   46 1
    44   27   32 1
    45   27   28 1
    46   28   29 1
    47   28   47 1
    48   28   48 1
    49   29   30 1
    50   29   49 1
    51   29   50 1
    52   30   31 1
    53   31   32 1
    54   31   51 1
    55   31   52 1
    56   32   53 1
    57   32   54 1
    58   33   55 1
    59   34   56 1
