@<TRIPOS>MOLECULE
CHEMBL92210
   57    61     0     0     0
SMALL
USER_CHARGES

@<TRIPOS>ATOM
      1 C1         -0.0167    1.3781    0.0096 C.ar      1 <0>        -0.1181
      2 C2          1.1709    2.0855    0.0021 C.ar      1 <0>        -0.1249
      3 C3          2.3773    1.4107   -0.0130 C.ar      1 <0>        -0.1138
      4 C4          2.3960    0.0285   -0.0201 C.ar      1 <0>        -0.0856
      5 C5          1.2084   -0.6789   -0.0117 C.ar      1 <0>        -0.0880
      6 C6          0.0021   -0.0041    0.0020 C.ar      1 <0>        -0.1260
      7 C7          3.7112   -0.7071   -0.0376 C.3       1 <0>         0.1120
      8 C8          4.0494   -1.1807    1.3779 C.3       1 <0>        -0.1032
      9 C9          5.3761   -1.9447    1.3518 C.3       1 <0>        -0.1248
     10 C10         5.2606   -3.1191    0.3761 C.3       1 <0>        -0.1129
     11 C11         4.8873   -2.5894   -1.0102 C.3       1 <0>         0.0407
     12 N1          3.6111   -1.8672   -0.9324 N.3       1 <0>        -0.2829
     13 N2          3.1843   -1.4919   -2.1745 N.pl3     1 <0>        -0.5361
     14 C12         2.0116   -2.0147   -2.6905 C.ar      1 <0>         0.5494
     15 C13         1.5607   -1.6441   -3.9691 C.ar      1 <0>        -0.1014
     16 C14         0.3631   -2.2078   -4.4397 C.ar      1 <0>         0.3285
     17 N3         -0.2959   -3.0646   -3.6659 N.ar      1 <0>        -0.5351
     18 C15         0.1647   -3.3834   -2.4735 C.ar      1 <0>         0.4256
     19 N4          1.2888   -2.8828   -1.9907 N.ar      1 <0>        -0.5408
     20 Cl1        -0.7348   -4.5070   -1.5029 Cl        1 <0>         0.0340
     21 N5          0.1628   -1.6809   -5.6905 N.pl3     1 <0>        -0.4684
     22 C16         1.2023   -0.8377   -5.9500 C.2       1 <0>         0.2691
     23 N6          2.0212   -0.8176   -4.9389 N.2       1 <0>        -0.4575
     24 C17        -0.9618   -1.9711   -6.5834 C.3       1 <0>         0.3129
     25 H1         -1.2630   -3.0141   -6.4865 H         1 <0>         0.1246
     26 C18        -2.1515   -1.0364   -6.2712 C.3       1 <0>         0.0796
     27 H2         -1.8027   -0.1209   -5.7935 H         1 <0>         0.0855
     28 C19        -2.7591   -0.7262   -7.6575 C.3       1 <0>         0.0476
     29 H3         -2.7108    0.3427   -7.8652 H         1 <0>         0.0871
     30 C20        -1.8646   -1.5101   -8.6433 C.3       1 <0>         0.0504
     31 H4         -2.3049   -2.4825   -8.8642 H         1 <0>         0.1006
     32 O1         -0.6065   -1.6755   -7.9518 O.3       1 <0>        -0.3464
     33 C21        -1.6660   -0.7112   -9.9330 C.3       1 <0>         0.0821
     34 O2         -0.9352   -1.5000  -10.8742 O.3       1 <0>        -0.5634
     35 O3         -4.1097   -1.1879   -7.7269 O.3       1 <0>        -0.5382
     36 O4         -3.1057   -1.7010   -5.4406 O.3       1 <0>        -0.5243
     37 H5         -0.9591    1.9053    0.0259 H         1 <0>         0.1173
     38 H6          1.1563    3.1654    0.0076 H         1 <0>         0.1192
     39 H7          3.3051    1.9634   -0.0196 H         1 <0>         0.1166
     40 H8          1.2231   -1.7588   -0.0176 H         1 <0>         0.1466
     41 H9         -0.9258   -0.5567    0.0082 H         1 <0>         0.1171
     42 H10         4.4958   -0.0399   -0.3943 H         1 <0>         0.0549
     43 H11         4.1390   -0.3183    2.0384 H         1 <0>         0.0747
     44 H12         3.2585   -1.8371    1.7407 H         1 <0>         0.0800
     45 H13         6.1742   -1.2777    1.0261 H         1 <0>         0.0610
     46 H14         5.5993   -2.3211    2.3501 H         1 <0>         0.0723
     47 H15         6.2156   -3.6417    0.3210 H         1 <0>         0.0746
     48 H16         4.4887   -3.8060    0.7232 H         1 <0>         0.0794
     49 H17         5.6663   -1.9133   -1.3626 H         1 <0>         0.0410
     50 H18         4.7903   -3.4244   -1.7041 H         1 <0>         0.0842
     51 H19         3.7034   -0.8589   -2.6950 H         1 <0>         0.4041
     52 H20         1.3275   -0.2702   -6.8603 H         1 <0>         0.2253
     53 H21        -2.6378   -0.4521  -10.3531 H         1 <0>         0.0672
     54 H22        -1.1102    0.2004   -9.7137 H         1 <0>         0.0610
     55 H23        -0.7722   -1.0555  -11.7173 H         1 <0>         0.3868
     56 H24        -4.5400   -1.0189   -8.5762 H         1 <0>         0.3874
     57 H25        -3.8740   -1.1595   -5.2134 H         1 <0>         0.3909
@<TRIPOS>BOND
     1    1    6 ar
     2    1    2 ar
     3    1   37 1
     4    2    3 ar
     5    2   38 1
     6    3    4 ar
     7    3   39 1
     8    4    5 ar
     9    4    7 1
    10    5    6 ar
    11    5   40 1
    12    6   41 1
    13    7   12 1
    14    7    8 1
    15    7   42 1
    16    8    9 1
    17    8   43 1
    18    8   44 1
    19    9   10 1
    20    9   45 1
    21    9   46 1
    22   10   11 1
    23   10   47 1
    24   10   48 1
    25   11   12 1
    26   11   49 1
    27   11   50 1
    28   12   13 1
    29   13   14 1
    30   13   51 1
    31   14   19 ar
    32   14   15 ar
    33   15   23 1
    34   15   16 ar
    35   16   17 ar
    36   16   21 1
    37   17   18 ar
    38   18   19 ar
    39   18   20 1
    40   21   22 1
    41   21   24 1
    42   22   23 2
    43   22   52 1
    44   24   25 1
    45   24   32 1
    46   24   26 1
    47   26   27 1
    48   26   28 1
    49   26   36 1
    50   28   29 1
    51   28   30 1
    52   28   35 1
    53   30   31 1
    54   30   32 1
    55   30   33 1
    56   33   34 1
    57   33   53 1
    58   33   54 1
    59   34   55 1
    60   35   56 1
    61   36   57 1
