@<TRIPOS>MOLECULE
CHEMBL406921
   56    59     0     0     0
SMALL
USER_CHARGES

@<TRIPOS>ATOM
      1 C1         -0.0184    1.5028    0.0103 C.3       1 <0>        -0.0744
      2 C2          0.0021   -0.0041    0.0020 C.2       1 <0>         0.0024
      3 C3         -1.0830   -0.8050    0.0027 C.2       1 <0>        -0.2232
      4 C4         -0.6160   -2.1327   -0.0076 C.2       1 <0>        -0.1250
      5 C5          0.7432   -2.0699   -0.0140 C.2       1 <0>         0.0267
      6 O1          1.1026   -0.7711   -0.0131 O.3       1 <0>        -0.1553
      7 C6          1.6636   -3.2233   -0.0254 C.ar      1 <0>         0.4290
      8 N1          1.1605   -4.4518   -0.0358 N.ar      1 <0>        -0.5026
      9 C7          1.9636   -5.5156   -0.0467 C.ar      1 <0>         0.4306
     10 C8          3.3494   -5.3203   -0.0472 C.ar      1 <0>        -0.2412
     11 C9          3.8342   -4.0177   -0.0362 C.ar      1 <0>         0.4136
     12 N2          2.9738   -3.0053   -0.0307 N.ar      1 <0>        -0.5662
     13 N3          5.2095   -3.7758   -0.0363 N.pl3     1 <0>        -0.3218
     14 C10         5.8246   -2.6507   -0.4862 C.2       1 <0>         0.1162
     15 C11         7.1557   -2.8140   -0.3105 C.2       1 <0>        -0.2715
     16 C12         7.3642   -4.0739    0.2630 C.2       1 <0>         0.0874
     17 N4          6.2010   -4.6472    0.4329 N.2       1 <0>        -0.2841
     18 C13         8.7009   -4.6659    0.6288 C.3       1 <0>        -0.0719
     19 C14         5.1465   -1.4404   -1.0747 C.3       1 <0>        -0.0860
     20 N5          1.4410   -6.7794   -0.0569 N.2       1 <0>        -0.6780
     21 C15         0.1507   -6.9501   -0.0559 C.2       1 <0>         0.3853
     22 O2         -0.6697   -5.8823   -0.0449 O.3       1 <0>        -0.6080
     23 C16        -0.4251   -8.3427   -0.0671 C.3       1 <0>         0.0276
     24 N6          0.6677   -9.3244   -0.0779 N.4       1 <0>        -0.3496
     25 C17         0.0973  -10.6684   -0.2925 C.3       1 <0>        -0.0075
     26 C18         1.1737  -11.5805   -0.8270 C.3       1 <0>        -0.1835
     27 C19         1.9013  -12.3224    0.3067 C.3       1 <0>         0.0504
     28 O3          2.1606  -11.4712    1.4404 O.3       1 <0>        -0.3785
     29 C20         2.5979  -10.1654    1.1571 C.3       1 <0>         0.0570
     30 C21         1.3812   -9.2195    1.1252 C.3       1 <0>        -0.0737
     31 H1          1.0042    1.8801    0.0026 H         1 <0>         0.0766
     32 H2         -0.5455    1.8639   -0.8728 H         1 <0>         0.0870
     33 H3         -0.5286    1.8543    0.9071 H         1 <0>         0.0869
     34 H4         -2.1153   -0.4875    0.0097 H         1 <0>         0.1518
     35 H5         -1.2198   -3.0281   -0.0096 H         1 <0>         0.1647
     36 H6          4.0262   -6.1619   -0.0556 H         1 <0>         0.1453
     37 H7          7.9227   -2.0984   -0.5674 H         1 <0>         0.1536
     38 H8          8.9503   -4.3940    1.6545 H         1 <0>         0.0794
     39 H9          8.6535   -5.7514    0.5420 H         1 <0>         0.0736
     40 H10         9.4657   -4.2806   -0.0455 H         1 <0>         0.0803
     41 H11         4.9099   -0.7338   -0.2793 H         1 <0>         0.0853
     42 H12         5.8119   -0.9660   -1.7961 H         1 <0>         0.0783
     43 H13         4.2274   -1.7460   -1.5746 H         1 <0>         0.0791
     44 H14        -1.0371   -8.4900    0.8228 H         1 <0>         0.1371
     45 H15        -1.0405   -8.4743   -0.9571 H         1 <0>         0.1380
     46 H16        -0.2768  -11.0609    0.6531 H         1 <0>         0.1316
     47 H17        -0.7193  -10.6073   -1.0119 H         1 <0>         0.1310
     48 H18         0.7206  -12.3111   -1.4971 H         1 <0>         0.1183
     49 H19         1.8974  -10.9874   -1.3862 H         1 <0>         0.0870
     50 H20         1.2876  -13.1634    0.6294 H         1 <0>         0.1040
     51 H21         2.8493  -12.7042   -0.0725 H         1 <0>         0.0711
     52 H22         3.2933   -9.8384    1.9302 H         1 <0>         0.1251
     53 H23         3.0963  -10.1504    0.1878 H         1 <0>         0.0716
     54 H24         1.7270   -8.1927    1.2442 H         1 <0>         0.1765
     55 H25         0.7177   -9.4671    1.9539 H         1 <0>         0.1186
     56 H26         1.2886   -9.1103   -0.8438 H         1 <0>         0.4241
@<TRIPOS>BOND
     1    1    2 1
     2    1   31 1
     3    1   32 1
     4    1   33 1
     5    2    6 1
     6    2    3 2
     7    3    4 1
     8    3   34 1
     9    4    5 2
    10    4   35 1
    11    5    6 1
    12    5    7 1
    13    7   12 ar
    14    7    8 ar
    15    8    9 ar
    16    9   10 ar
    17    9   20 1
    18   10   11 ar
    19   10   36 1
    20   11   12 ar
    21   11   13 1
    22   13   17 1
    23   13   14 1
    24   14   15 2
    25   14   19 1
    26   15   16 1
    27   15   37 1
    28   16   17 2
    29   16   18 1
    30   18   38 1
    31   18   39 1
    32   18   40 1
    33   19   41 1
    34   19   42 1
    35   19   43 1
    36   20   21 2
    37   21   22 1
    38   21   23 1
    39   23   24 1
    40   23   44 1
    41   23   45 1
    42   24   30 1
    43   24   25 1
    44   24   56 1
    45   25   26 1
    46   25   46 1
    47   25   47 1
    48   26   27 1
    49   26   48 1
    50   26   49 1
    51   27   28 1
    52   27   50 1
    53   27   51 1
    54   28   29 1
    55   29   30 1
    56   29   52 1
    57   29   53 1
    58   30   54 1
    59   30   55 1
