@<TRIPOS>MOLECULE
CHEMBL571672
   35    37     0     0     0
SMALL
USER_CHARGES

@<TRIPOS>ATOM
      1 C1         -0.0167    1.3776    0.0096 C.ar      1 <0>        -0.1735
      2 C2          1.1849    2.0698    0.0019 C.ar      1 <0>        -0.0539
      3 C3          2.3651    1.3426   -0.0133 C.ar      1 <0>        -0.1655
      4 C4          2.3054   -0.0383   -0.0202 C.ar      1 <0>         0.1212
      5 N1          1.1443   -0.6632   -0.0129 N.ar      1 <0>        -0.4845
      6 C5          0.0021   -0.0041    0.0020 C.ar      1 <0>         0.1080
      7 C6          3.6964    2.0488   -0.0227 C.3       1 <0>         0.1641
      8 N2          4.1412    2.2707    1.3554 N.am      1 <0>        -0.7046
      9 C7          5.3142    2.8904    1.5933 C.2       1 <0>         0.5744
     10 O1          6.0026    3.2650    0.6651 O.2       1 <0>        -0.5147
     11 C8          5.7649    3.1152    2.9895 C.ar      1 <0>         0.1822
     12 C9          6.9711    3.7589    3.2458 C.ar      1 <0>        -0.2138
     13 C10         7.3532    3.9475    4.5822 C.ar      1 <0>         0.3055
     14 N3          6.5518    3.5061    5.5512 N.ar      1 <0>        -0.5448
     15 C11         5.4115    2.8981    5.2631 C.ar      1 <0>         0.5815
     16 N4          5.0168    2.7079    4.0144 N.ar      1 <0>        -0.5534
     17 N5          4.6065    2.4533    6.2979 N.pl3     1 <0>        -0.8158
     18 C12         8.6224    4.6236    4.9100 C.2       1 <0>        -0.0060
     19 C13         9.1022    4.8594    6.1621 C.2       1 <0>        -0.1257
     20 C14        10.3333    5.5228    6.0059 C.2       1 <0>        -0.2242
     21 C15        10.5440    5.6589    4.6805 C.2       1 <0>        -0.0034
     22 O2          9.5118    5.1102    4.0222 O.3       1 <0>        -0.1620
     23 H1         -0.9552    1.9117    0.0259 H         1 <0>         0.1391
     24 H2          1.2009    3.1496    0.0072 H         1 <0>         0.1374
     25 H3          3.2203   -0.6121   -0.0320 H         1 <0>         0.1576
     26 H4         -0.9294   -0.5505    0.0083 H         1 <0>         0.1589
     27 H5          4.4293    1.4355   -0.5468 H         1 <0>         0.0865
     28 H6          3.5953    3.0079   -0.5308 H         1 <0>         0.0847
     29 H7          3.5916    1.9716    2.0965 H         1 <0>         0.4136
     30 H8          7.5975    4.1042    2.4367 H         1 <0>         0.1632
     31 H9          4.8808    2.5889    7.2184 H         1 <0>         0.4182
     32 H10         3.7682    2.0062    6.1025 H         1 <0>         0.4180
     33 H11         8.6292    4.5899    7.0949 H         1 <0>         0.1605
     34 H12        10.9860    5.8598    6.7976 H         1 <0>         0.1578
     35 H13        11.4031    6.1286    4.2246 H         1 <0>         0.2134
@<TRIPOS>BOND
     1    1    6 ar
     2    1    2 ar
     3    1   23 1
     4    2    3 ar
     5    2   24 1
     6    3    4 ar
     7    3    7 1
     8    4    5 ar
     9    4   25 1
    10    5    6 ar
    11    6   26 1
    12    7    8 1
    13    7   27 1
    14    7   28 1
    15    8    9 am
    16    8   29 1
    17    9   10 2
    18    9   11 1
    19   11   16 ar
    20   11   12 ar
    21   12   13 ar
    22   12   30 1
    23   13   14 ar
    24   13   18 1
    25   14   15 ar
    26   15   16 ar
    27   15   17 1
    28   17   31 1
    29   17   32 1
    30   18   22 1
    31   18   19 2
    32   19   20 1
    33   19   33 1
    34   20   21 2
    35   20   34 1
    36   21   22 1
    37   21   35 1
