@<TRIPOS>MOLECULE
CHEMBL165760
   41    43     0     0     0
SMALL
USER_CHARGES

@<TRIPOS>ATOM
      1 C1         -0.0184    1.5028    0.0103 C.3       1 <0>        -0.1189
      2 C2          0.0021   -0.0041    0.0020 C.ar      1 <0>        -0.0809
      3 C3          0.0057   -0.6888   -1.1991 C.ar      1 <0>        -0.1167
      4 C4          0.0245   -2.0707   -1.2067 C.ar      1 <0>        -0.0900
      5 C5          0.0400   -2.7685   -0.0132 C.ar      1 <0>        -0.0873
      6 C6          0.0373   -2.0840    1.1875 C.ar      1 <0>        -0.1081
      7 C7          0.0229   -0.7015    1.1951 C.ar      1 <0>        -0.0882
      8 C8          0.0252    0.0449    2.5043 C.3       1 <0>        -0.1171
      9 C9          0.0595   -4.2753   -0.0215 C.3       1 <0>        -0.0002
     10 C10         1.4866   -4.7592   -0.0320 C.2       1 <0>         0.2950
     11 N1          2.4019   -4.4246   -0.9027 N.2       1 <0>        -0.5170
     12 C11         3.5546   -5.0406   -0.6082 C.2       1 <0>         0.2699
     13 N2          3.3756   -5.7794    0.4648 N.2       1 <0>        -0.2989
     14 H1          1.5984   -6.0157    1.6174 H         1 <0>         0.4421
     15 N3          2.0383   -5.6052    0.8566 N.pl3     1 <0>        -0.4786
     16 C12         4.8233   -4.9108   -1.3672 C.ar      1 <0>         0.0228
     17 C13         4.8848   -4.0871   -2.4898 C.ar      1 <0>        -0.1112
     18 C14         6.0659   -3.9675   -3.1940 C.ar      1 <0>        -0.0839
     19 C15         7.1898   -4.6634   -2.7892 C.ar      1 <0>        -0.1927
     20 C16         7.1368   -5.4860   -1.6726 C.ar      1 <0>         0.1233
     21 C17         5.9569   -5.6070   -0.9565 C.ar      1 <0>        -0.1178
     22 O1          8.2438   -6.1687   -1.2784 O.3       1 <0>        -0.3160
     23 C18         9.4272   -5.9923   -2.0597 C.3       1 <0>         0.0265
     24 H2          1.0042    1.8801    0.0026 H         1 <0>         0.0710
     25 H3         -0.5455    1.8639   -0.8728 H         1 <0>         0.0672
     26 H4         -0.5286    1.8543    0.9071 H         1 <0>         0.0686
     27 H5         -0.0064   -0.1437   -2.1314 H         1 <0>         0.1236
     28 H6          0.0266   -2.6056   -2.1449 H         1 <0>         0.1259
     29 H7          0.0491   -2.6290    2.1199 H         1 <0>         0.1183
     30 H8         -1.0017    0.2110    2.8297 H         1 <0>         0.0709
     31 H9          0.5542   -0.5412    3.2558 H         1 <0>         0.0644
     32 H10         0.5249    1.0049    2.3743 H         1 <0>         0.0691
     33 H11        -0.4447   -4.6501    0.8693 H         1 <0>         0.0973
     34 H12        -0.4546   -4.6404   -0.9106 H         1 <0>         0.1117
     35 H13         4.0083   -3.5428   -2.8090 H         1 <0>         0.1378
     36 H14         6.1121   -3.3289   -4.0637 H         1 <0>         0.1325
     37 H15         8.1116   -4.5669   -3.3436 H         1 <0>         0.1318
     38 H16         5.9154   -6.2430   -0.0846 H         1 <0>         0.1387
     39 H17         9.2366   -6.3103   -3.0847 H         1 <0>         0.0567
     40 H18         9.7137   -4.9406   -2.0529 H         1 <0>         0.0566
     41 H19        10.2340   -6.5914   -1.6375 H         1 <0>         0.1016
@<TRIPOS>BOND
     1    1    2 1
     2    1   24 1
     3    1   25 1
     4    1   26 1
     5    2    7 ar
     6    2    3 ar
     7    3    4 ar
     8    3   27 1
     9    4    5 ar
    10    4   28 1
    11    5    6 ar
    12    5    9 1
    13    6    7 ar
    14    6   29 1
    15    7    8 1
    16    8   30 1
    17    8   31 1
    18    8   32 1
    19    9   33 1
    20    9   34 1
    21    9   10 1
    22   10   11 2
    23   10   15 1
    24   11   12 1
    25   12   16 1
    26   12   13 2
    27   13   15 1
    28   14   15 1
    29   16   21 ar
    30   16   17 ar
    31   17   18 ar
    32   17   35 1
    33   18   19 ar
    34   18   36 1
    35   19   20 ar
    36   19   37 1
    37   20   21 ar
    38   20   22 1
    39   21   38 1
    40   22   23 1
    41   23   39 1
    42   23   40 1
    43   23   41 1
