@<TRIPOS>MOLECULE
CHEMBL1095813
   59    63     0     0     0
SMALL
USER_CHARGES

@<TRIPOS>ATOM
      1 C1         -1.1568   -0.0928    7.7196 C.3       1 <0>        -0.1897
      2 C2          0.3331    0.2530    7.6805 C.3       1 <0>        -0.0108
      3 N1          0.9368   -0.3183    6.4692 N.4       1 <0>        -0.3855
      4 C3          0.8711   -1.7831    6.5358 C.3       1 <0>        -0.0078
      5 C4          1.4248   -2.3817    5.2409 C.3       1 <0>        -0.1616
      6 C5          2.8810   -1.9419    5.0636 C.3       1 <0>         0.1363
      7 C6          2.9463   -0.4119    5.0702 C.3       1 <0>        -0.1610
      8 C7          2.3362    0.1136    6.3713 C.3       1 <0>        -0.0031
      9 N2          3.3939   -2.4487    3.7883 N.pl3     1 <0>        -0.6192
     10 C8          2.6916   -2.1377    2.5408 C.3       1 <0>         0.0814
     11 C9          4.5468   -3.2244    3.7620 C.ar      1 <0>         0.2313
     12 C10         5.1029   -3.5969    2.5445 C.ar      1 <0>        -0.1808
     13 C11         6.2493   -4.3677    2.5114 C.ar      1 <0>         0.0037
     14 C12         6.8501   -4.7738    3.6989 C.ar      1 <0>        -0.1956
     15 C13         6.2909   -4.3993    4.9346 C.ar      1 <0>         0.0191
     16 C14         5.1453   -3.6219    4.9590 C.ar      1 <0>        -0.1501
     17 C15         7.1289   -4.9653    6.0222 C.ar      1 <0>         0.2953
     18 C16         8.1932   -5.6811    5.4388 C.ar      1 <0>        -0.3397
     19 C17         9.1227   -6.3079    6.2818 C.ar      1 <0>         0.3445
     20 N3          8.9607   -6.2005    7.6010 N.ar      1 <0>        -0.5658
     21 C18         7.9462   -5.5182    8.1079 C.ar      1 <0>         0.6009
     22 N4          7.0449   -4.9104    7.3428 N.ar      1 <0>        -0.5656
     23 N5          7.8197   -5.4347    9.4790 N.pl3     1 <0>        -0.8051
     24 C19        10.2593   -7.0730    5.7189 C.ar      1 <0>        -0.0865
     25 C20        10.1005   -7.7934    4.5352 C.ar      1 <0>        -0.0589
     26 C21        11.1632   -8.5038    4.0155 C.ar      1 <0>        -0.1268
     27 C22        12.3841   -8.5023    4.6660 C.ar      1 <0>        -0.0895
     28 C23        12.5477   -7.7900    5.8407 C.ar      1 <0>        -0.1331
     29 C24        11.4942   -7.0711    6.3672 C.ar      1 <0>        -0.0652
     30 C25         8.0570   -5.5870    3.9750 C.2       1 <0>         0.4631
     31 O1          8.7967   -6.0838    3.1483 O.2       1 <0>        -0.4127
     32 H1         -1.2783   -1.1760    7.7293 H         1 <0>         0.0805
     33 H2         -1.6047    0.3311    8.6184 H         1 <0>         0.1071
     34 H3         -1.6488    0.3202    6.8391 H         1 <0>         0.0805
     35 H4          0.4546    1.3361    7.6709 H         1 <0>         0.1314
     36 H5          0.8252   -0.1600    8.5611 H         1 <0>         0.1298
     37 H6          1.4633   -2.1349    7.3805 H         1 <0>         0.1318
     38 H7         -0.1655   -2.0944    6.6652 H         1 <0>         0.1367
     39 H8          1.3769   -3.4694    5.2931 H         1 <0>         0.1181
     40 H9          0.8331   -2.0307    4.3955 H         1 <0>         0.0937
     41 H10         3.4830   -2.3359    5.8824 H         1 <0>         0.1107
     42 H11         3.9858   -0.0917    5.0002 H         1 <0>         0.1173
     43 H12         2.3861   -0.0200    4.2212 H         1 <0>         0.0923
     44 H13         2.3812    1.2027    6.3794 H         1 <0>         0.1349
     45 H14         2.8972   -0.2786    7.2196 H         1 <0>         0.1314
     46 H15         3.0862   -1.2116    2.1228 H         1 <0>         0.0587
     47 H16         2.8392   -2.9496    1.8287 H         1 <0>         0.0814
     48 H17         1.6269   -2.0205    2.7427 H         1 <0>         0.0698
     49 H18         4.6379   -3.2834    1.6216 H         1 <0>         0.1403
     50 H19         6.6790   -4.6555    1.5633 H         1 <0>         0.1441
     51 H20         4.7126   -3.3268    5.9035 H         1 <0>         0.1342
     52 H21         8.4678   -5.8717   10.0533 H         1 <0>         0.4226
     53 H22         7.0826   -4.9390    9.8687 H         1 <0>         0.4174
     54 H23         9.1477   -7.7956    4.0267 H         1 <0>         0.1344
     55 H24        11.0414   -9.0623    3.0992 H         1 <0>         0.1300
     56 H25        13.2130   -9.0599    4.2554 H         1 <0>         0.1283
     57 H26        13.5031   -7.7930    6.3442 H         1 <0>         0.1297
     58 H27        11.6242   -6.5118    7.2819 H         1 <0>         0.1290
     59 H28         0.4293    0.0026    5.6583 H         1 <0>         0.4223
@<TRIPOS>BOND
     1    1    2 1
     2    1   32 1
     3    1   33 1
     4    1   34 1
     5    2    3 1
     6    2   35 1
     7    2   36 1
     8    3    8 1
     9    3    4 1
    10    3   59 1
    11    4    5 1
    12    4   37 1
    13    4   38 1
    14    5    6 1
    15    5   39 1
    16    5   40 1
    17    6    7 1
    18    6    9 1
    19    6   41 1
    20    7    8 1
    21    7   42 1
    22    7   43 1
    23    8   44 1
    24    8   45 1
    25    9   10 1
    26    9   11 1
    27   10   46 1
    28   10   47 1
    29   10   48 1
    30   11   16 ar
    31   11   12 ar
    32   12   13 ar
    33   12   49 1
    34   13   14 ar
    35   13   50 1
    36   14   30 1
    37   14   15 ar
    38   15   16 ar
    39   15   17 1
    40   16   51 1
    41   17   22 ar
    42   17   18 ar
    43   18   19 ar
    44   18   30 1
    45   19   20 ar
    46   19   24 1
    47   20   21 ar
    48   21   22 ar
    49   21   23 1
    50   23   52 1
    51   23   53 1
    52   24   29 ar
    53   24   25 ar
    54   25   26 ar
    55   25   54 1
    56   26   27 ar
    57   26   55 1
    58   27   28 ar
    59   27   56 1
    60   28   29 ar
    61   28   57 1
    62   29   58 1
    63   30   31 2
