@<TRIPOS>MOLECULE
CHEMBL604653
   55    58     0     0     0
SMALL
USER_CHARGES

@<TRIPOS>ATOM
      1 C1          0.5771    1.1923   -0.4889 C.3       1 <0>         0.0226
      2 O1         -0.0208   -0.0032    0.0163 O.3       1 <0>        -0.3101
      3 C2          0.6090   -0.6180    1.0528 C.ar      1 <0>         0.1418
      4 C3          1.7747   -0.0769    1.5749 C.ar      1 <0>        -0.1896
      5 C4          2.4148   -0.7007    2.6275 C.ar      1 <0>        -0.0771
      6 C5          1.8912   -1.8698    3.1635 C.ar      1 <0>         0.0781
      7 C6          0.7243   -2.4109    2.6403 C.ar      1 <0>        -0.0710
      8 C7          0.0822   -1.7829    1.5914 C.ar      1 <0>        -0.1309
      9 N1          2.5401   -2.5032    4.2307 N.am      1 <0>        -0.6239
     10 C8          2.5122   -3.8467    4.3346 C.2       1 <0>         0.7008
     11 O2          2.0076   -4.5148    3.4517 O.2       1 <0>        -0.4610
     12 N2          3.0474   -4.4547    5.4246 N.am      1 <0>        -0.4204
     13 N3          3.5824   -3.7464    6.3606 N.2       1 <0>         0.2597
     14 N4          4.0907   -4.3240    7.3960 N.pl3     1 <0>        -0.3056
     15 C9          4.6670   -3.5610    8.4043 C.ar      1 <0>         0.5440
     16 N5          4.6772   -2.2401    8.2813 N.ar      1 <0>        -0.5725
     17 C10         5.2155   -1.4675    9.2176 C.ar      1 <0>         0.5454
     18 C11         5.7793   -2.0791   10.3513 C.ar      1 <0>        -0.0632
     19 C12         5.7451   -3.4810   10.4376 C.ar      1 <0>         0.3237
     20 N6          5.1813   -4.1764    9.4555 N.ar      1 <0>        -0.5097
     21 N7          6.3536   -3.8021   11.6248 N.pl3     1 <0>        -0.4568
     22 C13         6.7333   -2.6343   12.2182 C.2       1 <0>         0.3026
     23 N8          6.3955   -1.6251   11.4695 N.2       1 <0>        -0.4502
     24 C14         6.5575   -5.1516   12.1573 C.3       1 <0>         0.3057
     25 C15         7.8899   -5.7381   11.6404 C.3       1 <0>         0.0785
     26 H1          8.5782   -4.9386   11.3663 H         1 <0>         0.0891
     27 C16         8.4398   -6.5375   12.8428 C.3       1 <0>         0.0479
     28 H2          9.4000   -6.1332   13.1631 H         1 <0>         0.0918
     29 C17         7.3746   -6.3394   13.9440 C.3       1 <0>         0.0511
     30 H3          6.6678   -7.1691   13.9418 H         1 <0>         0.1035
     31 O3          6.7058   -5.1083   13.5933 O.3       1 <0>        -0.3434
     32 C18         8.0426   -6.2136   15.3147 C.3       1 <0>         0.0804
     33 O4          7.0388   -6.1482   16.3296 O.3       1 <0>        -0.5645
     34 O5          8.5669   -7.9209   12.5083 O.3       1 <0>        -0.5399
     35 O6          7.6578   -6.6014   10.5256 O.3       1 <0>        -0.5331
     36 N9          5.2219   -0.0906    9.0804 N.pl3     1 <0>        -0.7908
     37 H4          1.5831    0.9724   -0.8463 H         1 <0>         0.0601
     38 H5         -0.0241    1.5796   -1.3115 H         1 <0>         0.1074
     39 H6          0.6284    1.9367    0.3056 H         1 <0>         0.0603
     40 H7          2.1820    0.8322    1.1578 H         1 <0>         0.1424
     41 H8          3.3226   -0.2795    3.0337 H         1 <0>         0.1369
     42 H9          0.3167   -3.3204    3.0563 H         1 <0>         0.1423
     43 H10        -0.8280   -2.2009    1.1875 H         1 <0>         0.1442
     44 H11         3.0095   -1.9751    4.8952 H         1 <0>         0.4265
     45 H12         4.0707   -5.2909    7.4708 H         1 <0>         0.4483
     46 H13         7.2394   -2.5584   13.1693 H         1 <0>         0.2394
     47 H14         5.7241   -5.7976   11.8812 H         1 <0>         0.1290
     48 H15         8.6798   -7.0806   15.4892 H         1 <0>         0.0707
     49 H16         8.6470   -5.3070   15.3425 H         1 <0>         0.0627
     50 H17         7.3910   -6.0675   17.2265 H         1 <0>         0.3912
     51 H18         8.9082   -8.4698   13.2276 H         1 <0>         0.3932
     52 H19         8.4611   -6.9975   10.1609 H         1 <0>         0.3967
     53 H20         4.8303    0.3202    8.2937 H         1 <0>         0.4203
     54 H21         5.6179    0.4638    9.7708 H         1 <0>         0.4328
     55 H22         3.0274   -5.4217    5.4993 H         1 <0>         0.4423
@<TRIPOS>BOND
     1    1    2 1
     2    1   37 1
     3    1   38 1
     4    1   39 1
     5    2    3 1
     6    3    8 ar
     7    3    4 ar
     8    4    5 ar
     9    4   40 1
    10    5    6 ar
    11    5   41 1
    12    6    7 ar
    13    6    9 1
    14    7    8 ar
    15    7   42 1
    16    8   43 1
    17    9   10 am
    18    9   44 1
    19   10   11 2
    20   10   12 am
    21   12   13 2
    22   12   55 1
    23   13   14 1
    24   14   15 1
    25   14   45 1
    26   15   20 ar
    27   15   16 ar
    28   16   17 ar
    29   17   18 ar
    30   17   36 1
    31   18   23 1
    32   18   19 ar
    33   19   20 ar
    34   19   21 1
    35   21   22 1
    36   21   24 1
    37   22   23 2
    38   22   46 1
    39   24   31 1
    40   24   25 1
    41   24   47 1
    42   25   26 1
    43   25   27 1
    44   25   35 1
    45   27   28 1
    46   27   29 1
    47   27   34 1
    48   29   30 1
    49   29   31 1
    50   29   32 1
    51   32   33 1
    52   32   48 1
    53   32   49 1
    54   33   50 1
    55   34   51 1
    56   35   52 1
    57   36   53 1
    58   36   54 1
