@<TRIPOS>MOLECULE
CHEMBL608297
   54    57     0     0     0
SMALL
USER_CHARGES

@<TRIPOS>ATOM
      1 C1         -0.0164    1.3590    0.0095 C.2       1 <0>         0.2678
      2 N1          1.2006    1.8206    0.0004 N.2       1 <0>        -0.4577
      3 C2          2.0754    0.7871   -0.0135 C.ar      1 <0>        -0.1025
      4 C3          3.4784    0.6816   -0.0279 C.ar      1 <0>         0.5150
      5 N2          4.0240   -0.5276   -0.0400 N.ar      1 <0>        -0.5707
      6 C4          3.2683   -1.6225   -0.0386 C.ar      1 <0>         0.4978
      7 N3          1.9438   -1.5670   -0.0257 N.ar      1 <0>        -0.5279
      8 C5          1.3171   -0.3971   -0.0127 C.ar      1 <0>         0.3170
      9 N4          0.0021   -0.0041    0.0020 N.pl3     1 <0>        -0.4692
     10 C6         -1.1668   -0.8871    0.0089 C.3       1 <0>         0.3129
     11 C7         -1.5540   -1.2556    1.4583 C.3       1 <0>         0.0791
     12 H1         -1.1953   -0.4970    2.1540 H         1 <0>         0.0860
     13 C8         -3.0987   -1.2847    1.4384 C.3       1 <0>         0.0475
     14 H2         -3.5036   -0.5406    2.1242 H         1 <0>         0.0876
     15 C9         -3.4621   -0.9305   -0.0207 C.3       1 <0>         0.0504
     16 H3         -3.6135   -1.8381   -0.6051 H         1 <0>         0.1004
     17 O1         -2.3213   -0.1972   -0.5174 O.3       1 <0>        -0.3463
     18 C10        -4.7178   -0.0573   -0.0599 C.3       1 <0>         0.0822
     19 O2         -5.1032    0.1621   -1.4183 O.3       1 <0>        -0.5634
     20 O3         -3.5792   -2.5878    1.7747 O.3       1 <0>        -0.5387
     21 O4         -1.0307   -2.5391    1.8055 O.3       1 <0>        -0.5256
     22 C11         3.9070   -2.9041   -0.0520 C.1       1 <0>        -0.1091
     23 C12         4.4307   -3.9548   -0.0630 C.1       1 <0>        -0.0921
     24 C13         5.0872   -5.2722   -0.0768 C.3       1 <0>         0.2506
     25 C14         5.9161   -5.4109   -1.3250 C.3       1 <0>        -0.1408
     26 C15         5.4014   -4.5252   -2.4758 C.3       1 <0>        -0.1142
     27 C16         3.8651   -4.5278   -2.5906 C.3       1 <0>        -0.1444
     28 C17         3.2759   -5.8994   -2.4011 C.3       1 <0>        -0.1160
     29 C18         2.8793   -6.0618   -0.9195 C.3       1 <0>        -0.1264
     30 C19         4.0181   -6.3840   -0.0724 C.3       1 <0>        -0.0982
     31 O5          5.9220   -5.4045    1.0755 O.3       1 <0>        -0.5445
     32 N5          4.2724    1.8152   -0.0299 N.pl3     1 <0>        -0.8138
     33 H4         -0.9093    1.9664    0.0254 H         1 <0>         0.2257
     34 H5         -0.9651   -1.7870   -0.5722 H         1 <0>         0.1241
     35 H6         -5.5265   -0.5599    0.4706 H         1 <0>         0.0673
     36 H7         -4.5097    0.9001    0.4179 H         1 <0>         0.0612
     37 H8         -5.8941    0.7093   -1.5193 H         1 <0>         0.3870
     38 H9         -4.5433   -2.6629    1.7773 H         1 <0>         0.3876
     39 H10        -1.2440   -2.8205    2.7057 H         1 <0>         0.3908
     40 H11         6.9449   -5.1315   -1.0980 H         1 <0>         0.0747
     41 H12         5.8981   -6.4523   -1.6463 H         1 <0>         0.0820
     42 H13         5.7398   -3.5023   -2.3104 H         1 <0>         0.0613
     43 H14         5.8246   -4.8859   -3.4133 H         1 <0>         0.0644
     44 H15         3.4537   -3.8597   -1.8340 H         1 <0>         0.0802
     45 H16         3.5845   -4.1566   -3.5763 H         1 <0>         0.0565
     46 H17         2.3928   -6.0088   -3.0307 H         1 <0>         0.0641
     47 H18         4.0147   -6.6553   -2.6674 H         1 <0>         0.0660
     48 H19         2.4314   -5.1316   -0.5700 H         1 <0>         0.0698
     49 H20         2.1412   -6.8596   -0.8370 H         1 <0>         0.0701
     50 H21         4.4706   -7.3102   -0.4266 H         1 <0>         0.0791
     51 H22         3.6676   -6.5326    0.9489 H         1 <0>         0.0771
     52 H23         6.6215   -4.7393    1.1329 H         1 <0>         0.3843
     53 H24         3.8626    2.6943   -0.0213 H         1 <0>         0.4211
     54 H25         5.2386    1.7306   -0.0398 H         1 <0>         0.4124
@<TRIPOS>BOND
     1    1    9 1
     2    1    2 2
     3    1   33 1
     4    2    3 1
     5    3    8 ar
     6    3    4 ar
     7    4    5 ar
     8    4   32 1
     9    5    6 ar
    10    6    7 ar
    11    6   22 1
    12    7    8 ar
    13    8    9 1
    14    9   10 1
    15   10   17 1
    16   10   11 1
    17   10   34 1
    18   11   12 1
    19   11   13 1
    20   11   21 1
    21   13   14 1
    22   13   15 1
    23   13   20 1
    24   15   16 1
    25   15   17 1
    26   15   18 1
    27   18   19 1
    28   18   35 1
    29   18   36 1
    30   19   37 1
    31   20   38 1
    32   21   39 1
    33   22   23 3
    34   23   24 1
    35   24   30 1
    36   24   25 1
    37   24   31 1
    38   25   26 1
    39   25   40 1
    40   25   41 1
    41   26   27 1
    42   26   42 1
    43   26   43 1
    44   27   28 1
    45   27   44 1
    46   27   45 1
    47   28   29 1
    48   28   46 1
    49   28   47 1
    50   29   30 1
    51   29   48 1
    52   29   49 1
    53   30   50 1
    54   30   51 1
    55   31   52 1
    56   32   53 1
    57   32   54 1
