@<TRIPOS>MOLECULE
CHEMBL174979
   41    44     0     0     0
SMALL
USER_CHARGES

@<TRIPOS>ATOM
      1 C1         -0.0162    1.3434    0.0094 C.2       1 <0>        -0.2191
      2 C2          1.3252    1.7744   -0.0011 C.2       1 <0>        -0.1297
      3 C3          2.0961    0.6548   -0.0144 C.2       1 <0>         0.0399
      4 O1          1.2797   -0.4166   -0.0124 O.3       1 <0>        -0.1611
      5 C4          0.0021   -0.0041    0.0020 C.2       1 <0>        -0.0108
      6 C5          3.5737    0.6193   -0.0287 C.2       1 <0>         0.3570
      7 N1          4.3730    1.6920   -0.0248 N.2       1 <0>        -0.5418
      8 C6          5.6386    1.3016   -0.0401 C.2       1 <0>         0.3811
      9 C7          6.8656    1.9861   -0.0443 C.2       1 <0>        -0.3158
     10 C8          8.0325    1.2463   -0.0628 C.2       1 <0>         0.4781
     11 N2          7.9812   -0.0912   -0.0761 N.2       1 <0>        -0.5891
     12 C9          6.8369   -0.7384   -0.0722 C.2       1 <0>         0.6831
     13 N3          5.6511   -0.0704   -0.0544 N.pl3     1 <0>        -0.3786
     14 N4          4.3106   -0.4761   -0.0417 N.2       1 <0>        -0.3342
     15 N5          6.8380   -2.1130   -0.0865 N.pl3     1 <0>        -0.8059
     16 N6          9.2607    1.8916   -0.0679 N.pl3     1 <0>        -0.7049
     17 C10        10.4992    1.1092   -0.0875 C.3       1 <0>         0.1332
     18 C11        11.7008    2.0563   -0.0893 C.3       1 <0>        -0.0933
     19 C12        12.9747    1.2515   -0.1094 C.ar      1 <0>        -0.0922
     20 C13        13.5664    0.8661    1.0793 C.ar      1 <0>        -0.0957
     21 C14        14.7345    0.1287    1.0636 C.ar      1 <0>        -0.1433
     22 C15        15.3135   -0.2256   -0.1463 C.ar      1 <0>         0.1049
     23 C16        14.7176    0.1620   -1.3377 C.ar      1 <0>        -0.1432
     24 C17        13.5468    0.8949   -1.3166 C.ar      1 <0>        -0.0957
     25 O2         16.4628   -0.9506   -0.1644 O.3       1 <0>        -0.5002
     26 H1         -0.8931    1.9736    0.0252 H         1 <0>         0.1587
     27 H2          1.6736    2.7966    0.0008 H         1 <0>         0.1625
     28 H3         -0.8667   -0.6456    0.0069 H         1 <0>         0.2124
     29 H4          6.8960    3.0656   -0.0338 H         1 <0>         0.1584
     30 H5          7.6784   -2.5973   -0.0992 H         1 <0>         0.4284
     31 H6          5.9984   -2.5988   -0.0837 H         1 <0>         0.4255
     32 H7          9.2994    2.8608   -0.0586 H         1 <0>         0.4174
     33 H8         10.5402    0.4719    0.7958 H         1 <0>         0.0712
     34 H9         10.5234    0.4897   -0.9840 H         1 <0>         0.0712
     35 H10        11.6597    2.6936   -0.9726 H         1 <0>         0.0822
     36 H11        11.6765    2.6758    0.8072 H         1 <0>         0.0823
     37 H12        13.1152    1.1421    2.0209 H         1 <0>         0.1278
     38 H13        15.1966   -0.1715    1.9924 H         1 <0>         0.1297
     39 H14        15.1665   -0.1125   -2.2808 H         1 <0>         0.1297
     40 H15        13.0801    1.1931   -2.2438 H         1 <0>         0.1278
     41 H16        16.3241   -1.9075   -0.1765 H         1 <0>         0.3922
@<TRIPOS>BOND
     1    1    5 2
     2    1    2 1
     3    1   26 1
     4    2    3 2
     5    2   27 1
     6    3    4 1
     7    3    6 1
     8    4    5 1
     9    5   28 1
    10    6   14 2
    11    6    7 1
    12    7    8 2
    13    8   13 1
    14    8    9 1
    15    9   10 2
    16    9   29 1
    17   10   11 1
    18   10   16 1
    19   11   12 2
    20   12   13 1
    21   12   15 1
    22   13   14 1
    23   15   30 1
    24   15   31 1
    25   16   17 1
    26   16   32 1
    27   17   18 1
    28   17   33 1
    29   17   34 1
    30   18   19 1
    31   18   35 1
    32   18   36 1
    33   19   24 ar
    34   19   20 ar
    35   20   21 ar
    36   20   37 1
    37   21   22 ar
    38   21   38 1
    39   22   23 ar
    40   22   25 1
    41   23   24 ar
    42   23   39 1
    43   24   40 1
    44   25   41 1
