@<TRIPOS>MOLECULE
CHEMBL1087185
   51    55     0     0     0
SMALL
USER_CHARGES

@<TRIPOS>ATOM
      1 C1          3.2345    1.4335   -1.5663 C.3       1 <0>         0.0241
      2 N1          2.4524    0.3127   -1.0278 N.3       1 <0>        -0.5432
      3 C2          2.1644   -0.6786   -2.0729 C.3       1 <0>         0.0392
      4 C3          1.2003   -1.7336   -1.5200 C.3       1 <0>         0.1166
      5 N2          1.7707   -2.2840   -0.2810 N.am      1 <0>        -0.6065
      6 C4          2.2112   -1.3433    0.7602 C.3       1 <0>         0.0992
      7 C5          3.1354   -0.3036    0.1175 C.3       1 <0>         0.0381
      8 C6          1.8862   -3.6152   -0.1043 C.2       1 <0>         0.5616
      9 O1          1.4536   -4.3795   -0.9444 O.2       1 <0>        -0.5217
     10 C7          2.5397   -4.1461    1.1126 C.ar      1 <0>        -0.1020
     11 C8          2.1592   -3.6763    2.3679 C.ar      1 <0>        -0.0779
     12 C9          2.7688   -4.1711    3.5083 C.ar      1 <0>        -0.0530
     13 C10         3.7609   -5.1368    3.4043 C.ar      1 <0>        -0.1243
     14 C11         4.1499   -5.6155    2.1414 C.ar      1 <0>        -0.0384
     15 C12         3.5341   -5.1227    1.0015 C.ar      1 <0>        -0.0208
     16 C13         5.2179   -6.6300    2.3293 C.ar      1 <0>         0.3081
     17 C14         5.4726   -6.7623    3.7095 C.ar      1 <0>        -0.3483
     18 C15         6.4540   -7.6749    4.1269 C.ar      1 <0>         0.3448
     19 N3          7.1047   -8.3789    3.2003 N.ar      1 <0>        -0.5691
     20 C16         6.8342   -8.2237    1.9140 C.ar      1 <0>         0.6047
     21 N4          5.9126   -7.3702    1.4786 N.ar      1 <0>        -0.5607
     22 N5          7.5335   -8.9743    0.9924 N.pl3     1 <0>        -0.8026
     23 C17         6.7604   -7.8515    5.5651 C.ar      1 <0>        -0.0815
     24 C18         6.6970   -6.7619    6.4335 C.ar      1 <0>        -0.0599
     25 C19         6.9831   -6.9329    7.7724 C.ar      1 <0>        -0.1270
     26 C20         7.3322   -8.1820    8.2541 C.ar      1 <0>        -0.0924
     27 C21         7.3972   -9.2666    7.3976 C.ar      1 <0>        -0.1336
     28 C22         7.1078   -9.1094    6.0577 C.ar      1 <0>        -0.0654
     29 C23         4.5781   -5.8408    4.4279 C.2       1 <0>         0.4640
     30 O2          4.5189   -5.6840    5.6311 O.2       1 <0>        -0.4070
     31 H1          4.2093    1.0721   -1.8939 H         1 <0>         0.0270
     32 H2          2.7061    1.8715   -2.4131 H         1 <0>         0.0719
     33 H3          3.3684    2.1885   -0.7917 H         1 <0>         0.0721
     34 H4          1.7080   -0.1821   -2.9293 H         1 <0>         0.0918
     35 H5          3.0918   -1.1602   -2.3829 H         1 <0>         0.0403
     36 H6          0.2363   -1.2723   -1.3059 H         1 <0>         0.0811
     37 H7          1.0731   -2.5322   -2.2508 H         1 <0>         0.0992
     38 H8          1.3443   -0.8444    1.1935 H         1 <0>         0.0854
     39 H9          2.7522   -1.8838    1.5369 H         1 <0>         0.0973
     40 H10         4.0493   -0.7905   -0.2230 H         1 <0>         0.0408
     41 H11         3.3833    0.4648    0.8497 H         1 <0>         0.0917
     42 H12         1.3880   -2.9248    2.4515 H         1 <0>         0.1485
     43 H13         2.4724   -3.8051    4.4802 H         1 <0>         0.1504
     44 H14         3.8252   -5.4894    0.0283 H         1 <0>         0.1468
     45 H15         8.2097   -9.6022    1.2912 H         1 <0>         0.4214
     46 H16         7.3491   -8.8743    0.0453 H         1 <0>         0.4204
     47 H17         6.4249   -5.7862    6.0587 H         1 <0>         0.1347
     48 H18         6.9347   -6.0899    8.4458 H         1 <0>         0.1292
     49 H19         7.5552   -8.3109    9.3029 H         1 <0>         0.1267
     50 H20         7.6707  -10.2391    7.7794 H         1 <0>         0.1285
     51 H21         7.1545   -9.9577    5.3909 H         1 <0>         0.1295
@<TRIPOS>BOND
     1    1    2 1
     2    1   31 1
     3    1   32 1
     4    1   33 1
     5    2    7 1
     6    2    3 1
     7    3    4 1
     8    3   34 1
     9    3   35 1
    10    4    5 1
    11    4   36 1
    12    4   37 1
    13    5    6 1
    14    5    8 am
    15    6    7 1
    16    6   38 1
    17    6   39 1
    18    7   40 1
    19    7   41 1
    20    8    9 2
    21    8   10 1
    22   10   15 ar
    23   10   11 ar
    24   11   12 ar
    25   11   42 1
    26   12   13 ar
    27   12   43 1
    28   13   29 1
    29   13   14 ar
    30   14   15 ar
    31   14   16 1
    32   15   44 1
    33   16   21 ar
    34   16   17 ar
    35   17   18 ar
    36   17   29 1
    37   18   19 ar
    38   18   23 1
    39   19   20 ar
    40   20   21 ar
    41   20   22 1
    42   22   45 1
    43   22   46 1
    44   23   28 ar
    45   23   24 ar
    46   24   25 ar
    47   24   47 1
    48   25   26 ar
    49   25   48 1
    50   26   27 ar
    51   26   49 1
    52   27   28 ar
    53   27   50 1
    54   28   51 1
    55   29   30 2
