@<TRIPOS>MOLECULE
CHEMBL1099368
   50    54     0     0     0
SMALL
USER_CHARGES

@<TRIPOS>ATOM
      1 C1         -0.0167    1.3793    0.0096 C.ar      1 <0>        -0.0877
      2 C2          1.1685    2.0929    0.0021 C.ar      1 <0>        -0.1319
      3 C3          2.3774    1.4279   -0.0130 C.ar      1 <0>        -0.0638
      4 C4          2.4029    0.0333   -0.0207 C.ar      1 <0>        -0.0889
      5 C5          1.2046   -0.6805   -0.0131 C.ar      1 <0>        -0.0602
      6 C6          0.0021   -0.0041    0.0020 C.ar      1 <0>        -0.1264
      7 C7          3.6972   -0.6866   -0.0375 C.ar      1 <0>         0.3514
      8 C8          3.8485   -1.9053    0.6416 C.ar      1 <0>        -0.3477
      9 C9          5.0995   -2.5526    0.5963 C.ar      1 <0>         0.2964
     10 N1          6.0850   -1.9878   -0.0854 N.ar      1 <0>        -0.5638
     11 C10         5.9016   -0.8324   -0.7162 C.ar      1 <0>         0.6056
     12 N2          4.7422   -0.1938   -0.7026 N.ar      1 <0>        -0.5645
     13 N3          6.9560   -0.2811   -1.4137 N.pl3     1 <0>        -0.8008
     14 C11         5.0091   -3.8087    1.3828 C.ar      1 <0>        -0.0259
     15 C12         5.9398   -4.8012    1.6568 C.ar      1 <0>        -0.0593
     16 C13         5.5832   -5.8911    2.4363 C.ar      1 <0>        -0.0926
     17 C14         4.3040   -5.9981    2.9448 C.ar      1 <0>        -0.0689
     18 C15         3.3631   -5.0152    2.6796 C.ar      1 <0>        -0.0500
     19 C16         3.7079   -3.9189    1.9009 C.ar      1 <0>        -0.1182
     20 C17         2.9384   -2.7304    1.4536 C.2       1 <0>         0.4570
     21 O1          1.7764   -2.4848    1.7094 O.2       1 <0>        -0.3977
     22 C18         6.5980   -6.9658    2.7299 C.3       1 <0>         0.0619
     23 N4          7.3232   -6.6308    3.9628 N.3       1 <0>        -0.4901
     24 N5          8.3131   -7.6482    4.2778 N.4       1 <0>        -0.2572
     25 C19         9.6032   -7.3305    3.6139 C.3       1 <0>        -0.0396
     26 C20        10.6387   -8.1163    4.4569 C.3       1 <0>        -0.1417
     27 C21        10.0936   -7.9719    5.8964 C.3       1 <0>        -0.1466
     28 C22         8.5967   -7.6517    5.7294 C.3       1 <0>         0.0126
     29 H1         -0.9604    1.9042    0.0260 H         1 <0>         0.1294
     30 H2          1.1475    3.1726    0.0078 H         1 <0>         0.1308
     31 H3          3.3020    1.9860   -0.0192 H         1 <0>         0.1300
     32 H4          1.2180   -1.7604   -0.0194 H         1 <0>         0.1328
     33 H5         -0.9264   -0.5556    0.0083 H         1 <0>         0.1307
     34 H6          7.8124   -0.7360   -1.4376 H         1 <0>         0.4198
     35 H7          6.8412    0.5615   -1.8803 H         1 <0>         0.4241
     36 H8          6.9422   -4.7247    1.2623 H         1 <0>         0.1394
     37 H9          4.0354   -6.8506    3.5509 H         1 <0>         0.1459
     38 H10         2.3631   -5.1023    3.0782 H         1 <0>         0.1504
     39 H11         6.0891   -7.9214    2.8559 H         1 <0>         0.1202
     40 H12         7.3029   -7.0360    1.9014 H         1 <0>         0.0836
     41 H13         7.7505   -5.7194    3.8946 H         1 <0>         0.3929
     42 H14         9.6015   -7.6814    2.5819 H         1 <0>         0.1353
     43 H15         9.8047   -6.2601    3.6571 H         1 <0>         0.1350
     44 H16        10.6644   -9.1641    4.1575 H         1 <0>         0.1006
     45 H17        11.6274   -7.6654    4.3718 H         1 <0>         0.1182
     46 H18        10.2219   -8.9051    6.4449 H         1 <0>         0.1088
     47 H19        10.5998   -7.1561    6.4125 H         1 <0>         0.1057
     48 H20         8.3771   -6.6716    6.1529 H         1 <0>         0.1353
     49 H21         7.9961   -8.4156    6.2232 H         1 <0>         0.1359
     50 H22         7.9845   -8.5563    3.9853 H         1 <0>         0.4338
@<TRIPOS>BOND
     1    1    6 ar
     2    1    2 ar
     3    1   29 1
     4    2    3 ar
     5    2   30 1
     6    3    4 ar
     7    3   31 1
     8    4    5 ar
     9    4    7 1
    10    5    6 ar
    11    5   32 1
    12    6   33 1
    13    7   12 ar
    14    7    8 ar
    15    8   20 1
    16    8    9 ar
    17    9   10 ar
    18    9   14 1
    19   10   11 ar
    20   11   12 ar
    21   11   13 1
    22   13   34 1
    23   13   35 1
    24   14   19 ar
    25   14   15 ar
    26   15   16 ar
    27   15   36 1
    28   16   17 ar
    29   16   22 1
    30   17   18 ar
    31   17   37 1
    32   18   19 ar
    33   18   38 1
    34   19   20 1
    35   20   21 2
    36   22   23 1
    37   22   39 1
    38   22   40 1
    39   23   24 1
    40   23   41 1
    41   24   28 1
    42   24   25 1
    43   24   50 1
    44   25   26 1
    45   25   42 1
    46   25   43 1
    47   26   27 1
    48   26   44 1
    49   26   45 1
    50   27   28 1
    51   27   46 1
    52   27   47 1
    53   28   48 1
    54   28   49 1
