@<TRIPOS>MOLECULE
CHEMBL482138
   61    67     0     0     0
SMALL
USER_CHARGES

@<TRIPOS>ATOM
      1 C1         -0.0664    1.4765   -2.2034 C.2       1 <0>        -0.2199
      2 C2          1.2750    1.9076   -2.1892 C.2       1 <0>        -0.1366
      3 C3          2.0303    0.8264   -1.8596 C.2       1 <0>         0.0414
      4 O1          1.2047   -0.2223   -1.6781 O.3       1 <0>        -0.1521
      5 C4         -0.0636    0.1671   -1.8851 C.2       1 <0>        -0.0036
      6 C5          3.5019    0.8053   -1.7241 C.2       1 <0>         0.3515
      7 N1          4.2356   -0.2681   -1.4038 N.2       1 <0>        -0.5156
      8 C6          5.5100    0.0617   -1.3692 C.2       1 <0>         0.4061
      9 C7          6.7485   -0.6644   -1.0862 C.2       1 <0>        -0.2667
     10 C8          7.0600   -1.9924   -0.7433 C.2       1 <0>         0.1325
     11 N2          8.3538   -2.0903   -0.6050 N.2       1 <0>        -0.2633
     12 N3          8.9450   -0.8444   -0.8482 N.pl3     1 <0>        -0.3562
     13 C9          7.9573    0.0455   -1.1473 C.2       1 <0>         0.3709
     14 N4          7.9434    1.3493   -1.4577 N.2       1 <0>        -0.5623
     15 C10         6.8325    1.9969   -1.7099 C.2       1 <0>         0.6929
     16 N5          5.6088    1.3937   -1.6770 N.pl3     1 <0>        -0.3765
     17 N6          4.3008    1.8400   -1.9051 N.2       1 <0>        -0.2993
     18 N7          6.9025    3.3348   -2.0210 N.pl3     1 <0>        -0.8017
     19 C11        10.3786   -0.5483   -0.7901 C.3       1 <0>         0.1441
     20 C12        11.0029   -0.7771   -2.1681 C.3       1 <0>        -0.0993
     21 C13        12.4776   -0.4726   -2.1082 C.ar      1 <0>        -0.0692
     22 C14        12.9233    0.8225   -2.3698 C.ar      1 <0>        -0.0909
     23 C15        14.2467    1.1322   -2.3250 C.ar      1 <0>        -0.0843
     24 C16        15.1876    0.1329   -2.0094 C.ar      1 <0>         0.1196
     25 C17        14.7307   -1.1844   -1.7432 C.ar      1 <0>        -0.0818
     26 C18        13.3555   -1.4644   -1.7942 C.ar      1 <0>        -0.0901
     27 C19        15.6689   -2.1846   -1.4276 C.ar      1 <0>        -0.0531
     28 C20        16.9902   -1.8425   -1.3905 C.ar      1 <0>        -0.1246
     29 C21        17.3767   -0.5224   -1.6636 C.ar      1 <0>         0.1194
     30 N8         16.4901    0.4088   -1.9582 N.ar      1 <0>        -0.4373
     31 C22        18.8150   -0.1649   -1.6193 C.2       1 <0>         0.5712
     32 O2         19.6543   -1.0360   -1.5054 O.2       1 <0>        -0.5264
     33 N9         19.1914    1.1264   -1.7054 N.am      1 <0>        -0.5950
     34 C23        18.1955    2.2093   -1.6761 C.3       1 <0>         0.0435
     35 C24        18.6314    3.2388   -0.6274 C.3       1 <0>         0.0437
     36 O3         19.9837    3.6266   -0.8822 O.3       1 <0>        -0.3807
     37 C25        20.9288    2.5594   -0.7746 C.3       1 <0>         0.0489
     38 C26        20.6109    1.4952   -1.8252 C.3       1 <0>         0.0732
     39 H1         -0.9332    2.0820   -2.4232 H         1 <0>         0.1596
     40 H2          1.6338    2.9042   -2.4001 H         1 <0>         0.1600
     41 H3         -0.9365   -0.4641   -1.8084 H         1 <0>         0.2143
     42 H4          6.3487   -2.7951   -0.6159 H         1 <0>         0.2027
     43 H5          7.7630    3.7814   -2.0505 H         1 <0>         0.4304
     44 H6          6.0914    3.8317   -2.2108 H         1 <0>         0.4267
     45 H7         10.5233    0.4905   -0.4936 H         1 <0>         0.1028
     46 H8         10.8558   -1.2039   -0.0616 H         1 <0>         0.1042
     47 H9         10.8582   -1.8160   -2.4646 H         1 <0>         0.0882
     48 H10        10.5258   -0.1215   -2.8965 H         1 <0>         0.0851
     49 H11        12.2056    1.5923   -2.6123 H         1 <0>         0.1359
     50 H12        14.5749    2.1403   -2.5310 H         1 <0>         0.1415
     51 H13        12.9967   -2.4623   -1.5895 H         1 <0>         0.1373
     52 H14        15.3521   -3.1960   -1.2198 H         1 <0>         0.1502
     53 H15        17.7356   -2.5865   -1.1512 H         1 <0>         0.1527
     54 H16        18.1404    2.6839   -2.6558 H         1 <0>         0.0762
     55 H17        17.2198    1.8035   -1.4088 H         1 <0>         0.1515
     56 H18        17.9845    4.1142   -0.6857 H         1 <0>         0.1067
     57 H19        18.5603    2.7982    0.3670 H         1 <0>         0.0525
     58 H20        21.9346    2.9459   -0.9388 H         1 <0>         0.1091
     59 H21        20.8659    2.1162    0.2193 H         1 <0>         0.0561
     60 H22        21.2339    0.6169   -1.6566 H         1 <0>         0.1037
     61 H23        20.8031    1.8968   -2.8202 H         1 <0>         0.0803
@<TRIPOS>BOND
     1    1    5 2
     2    1    2 1
     3    1   39 1
     4    2    3 2
     5    2   40 1
     6    3    4 1
     7    3    6 1
     8    4    5 1
     9    5   41 1
    10    6   17 2
    11    6    7 1
    12    7    8 2
    13    8   16 1
    14    8    9 1
    15    9   13 2
    16    9   10 1
    17   10   11 2
    18   10   42 1
    19   11   12 1
    20   12   13 1
    21   12   19 1
    22   13   14 1
    23   14   15 2
    24   15   16 1
    25   15   18 1
    26   16   17 1
    27   18   43 1
    28   18   44 1
    29   19   20 1
    30   19   45 1
    31   19   46 1
    32   20   21 1
    33   20   47 1
    34   20   48 1
    35   21   26 ar
    36   21   22 ar
    37   22   23 ar
    38   22   49 1
    39   23   24 ar
    40   23   50 1
    41   24   30 ar
    42   24   25 ar
    43   25   26 ar
    44   25   27 ar
    45   26   51 1
    46   27   28 ar
    47   27   52 1
    48   28   29 ar
    49   28   53 1
    50   29   30 ar
    51   29   31 1
    52   31   32 2
    53   31   33 am
    54   33   38 1
    55   33   34 1
    56   34   35 1
    57   34   54 1
    58   34   55 1
    59   35   36 1
    60   35   56 1
    61   35   57 1
    62   36   37 1
    63   37   38 1
    64   37   58 1
    65   37   59 1
    66   38   60 1
    67   38   61 1
