@<TRIPOS>MOLECULE
CHEMBL252171
   55    58     0     0     0
SMALL
USER_CHARGES

@<TRIPOS>ATOM
      1 C1         -0.0267    1.5052    0.0151 C.3       1 <0>        -0.0782
      2 C2         -0.0056   -0.0017    0.0058 C.2       1 <0>         0.1079
      3 C3         -0.0008   -0.8138   -1.1344 C.2       1 <0>        -0.2564
      4 C4          0.0197   -2.1036   -0.7279 C.2       1 <0>         0.1178
      5 N1          0.0275   -2.1063    0.6310 N.pl3     1 <0>        -0.3382
      6 N2          0.0170   -0.7732    1.0617 N.2       1 <0>        -0.2875
      7 C5          0.0480   -3.2358    1.4515 C.ar      1 <0>         0.4609
      8 C6          0.5563   -3.1581    2.7443 C.ar      1 <0>        -0.2595
      9 C7          0.5575   -4.3096    3.5284 C.ar      1 <0>         0.4330
     10 N3          0.0763   -5.4388    3.0203 N.ar      1 <0>        -0.5073
     11 C8         -0.4013   -5.4769    1.7816 C.ar      1 <0>         0.4621
     12 N4         -0.4223   -4.3964    1.0094 N.ar      1 <0>        -0.5426
     13 C9         -0.9273   -6.7498    1.2522 C.2       1 <0>         0.0104
     14 C10        -0.9826   -7.9322    1.9236 C.2       1 <0>        -0.1162
     15 C11        -1.5534   -8.8712    1.0442 C.2       1 <0>        -0.2281
     16 C12        -1.8163   -8.2240   -0.1094 C.2       1 <0>         0.0022
     17 O1         -1.4420   -6.9424    0.0217 O.3       1 <0>        -0.1524
     18 N5          1.0565   -4.2775    4.8264 N.am      1 <0>        -0.6509
     19 C13         0.9605   -5.3681    5.6124 C.2       1 <0>         0.5069
     20 O2          0.5235   -6.4050    5.1601 O.2       1 <0>        -0.4475
     21 C14         1.3961   -5.2991    7.0534 C.3       1 <0>         0.0377
     22 N6          1.1926   -6.6074    7.6897 N.3       1 <0>        -0.5232
     23 C15        -0.2378   -6.9335    7.7777 C.3       1 <0>         0.0172
     24 C16        -0.4038   -8.3259    8.3902 C.3       1 <0>         0.0007
     25 N7          0.2042   -8.3485    9.7272 N.4       1 <0>        -0.3894
     26 C17         1.6375   -8.0453    9.6203 C.3       1 <0>        -0.0013
     27 C18         1.8204   -6.6505    9.0180 C.3       1 <0>         0.0266
     28 C19         0.0288   -9.6802   10.3221 C.3       1 <0>        -0.0457
     29 C20         0.0308   -3.3179   -1.6203 C.3       1 <0>        -0.1095
     30 H1          0.9957    1.8829    0.0063 H         1 <0>         0.0856
     31 H2         -0.5551    1.8665   -0.8672 H         1 <0>         0.0861
     32 H3         -0.5360    1.8559    0.9127 H         1 <0>         0.0777
     33 H4         -0.0118   -0.4708   -2.1584 H         1 <0>         0.1617
     34 H5          0.9415   -2.2262    3.1312 H         1 <0>         0.1627
     35 H6         -0.6519   -8.1148    2.9353 H         1 <0>         0.1630
     36 H7         -1.7447   -9.9133    1.2536 H         1 <0>         0.1579
     37 H8         -2.2587   -8.6635   -0.9911 H         1 <0>         0.2140
     38 H9          1.4736   -3.4703    5.1659 H         1 <0>         0.4267
     39 H10         2.4518   -5.0321    7.1014 H         1 <0>         0.1241
     40 H11         0.8066   -4.5455    7.5756 H         1 <0>         0.0836
     41 H12        -0.7407   -6.1978    8.4053 H         1 <0>         0.0586
     42 H13        -0.6758   -6.9207    6.7796 H         1 <0>         0.1393
     43 H14        -1.4645   -8.5639    8.4695 H         1 <0>         0.1366
     44 H15         0.0875   -9.0631    7.7552 H         1 <0>         0.1405
     45 H16         2.0900   -8.0752   10.6115 H         1 <0>         0.1380
     46 H17         2.1183   -8.7839    8.9790 H         1 <0>         0.1393
     47 H18         2.8840   -6.4312    8.9248 H         1 <0>         0.1263
     48 H19         1.3515   -5.9101    9.6661 H         1 <0>         0.0639
     49 H20         0.5110  -10.4265    9.6909 H         1 <0>         0.1237
     50 H21         0.4799   -9.6971   11.3142 H         1 <0>         0.1243
     51 H22        -1.0347   -9.9049   10.4027 H         1 <0>         0.1245
     52 H23         1.0610   -3.5967   -1.8416 H         1 <0>         0.0792
     53 H24        -0.4688   -4.1446   -1.1153 H         1 <0>         0.1030
     54 H25        -0.4917   -3.0907   -2.5495 H         1 <0>         0.0888
     55 H26        -0.2428   -7.6580   10.3114 H         1 <0>         0.4218
@<TRIPOS>BOND
     1    1    2 1
     2    1   30 1
     3    1   31 1
     4    1   32 1
     5    2    6 2
     6    2    3 1
     7    3    4 2
     8    3   33 1
     9    4    5 1
    10    4   29 1
    11    5    6 1
    12    5    7 1
    13    7   12 ar
    14    7    8 ar
    15    8    9 ar
    16    8   34 1
    17    9   10 ar
    18    9   18 1
    19   10   11 ar
    20   11   12 ar
    21   11   13 1
    22   13   17 1
    23   13   14 2
    24   14   15 1
    25   14   35 1
    26   15   16 2
    27   15   36 1
    28   16   17 1
    29   16   37 1
    30   18   19 am
    31   18   38 1
    32   19   20 2
    33   19   21 1
    34   21   22 1
    35   21   39 1
    36   21   40 1
    37   22   27 1
    38   22   23 1
    39   23   24 1
    40   23   41 1
    41   23   42 1
    42   24   25 1
    43   24   43 1
    44   24   44 1
    45   25   26 1
    46   25   28 1
    47   25   55 1
    48   26   27 1
    49   26   45 1
    50   26   46 1
    51   27   47 1
    52   27   48 1
    53   28   49 1
    54   28   50 1
    55   28   51 1
    56   29   52 1
    57   29   53 1
    58   29   54 1
