@<TRIPOS>MOLECULE
CHEMBL605895
   50    53     0     0     0
SMALL
USER_CHARGES

@<TRIPOS>ATOM
      1 C1         -0.0153    1.3805    0.0313 C.ar      1 <0>        -0.1337
      2 C2          0.1398    0.2186    0.7648 C.ar      1 <0>        -0.0991
      3 C3          1.3441   -0.4572    0.7443 C.ar      1 <0>        -0.1219
      4 C4          2.4000    0.0314   -0.0140 C.ar      1 <0>         0.1561
      5 C5          2.2410    1.1986   -0.7495 C.ar      1 <0>        -0.1420
      6 C6          1.0341    1.8696   -0.7248 C.ar      1 <0>        -0.0995
      7 N1          3.6215   -0.6506   -0.0365 N.am      1 <0>        -0.6658
      8 C7          3.6446   -1.9949    0.0577 C.2       1 <0>         0.7379
      9 O1          2.6032   -2.6216    0.0649 O.2       1 <0>        -0.5394
     10 N2          4.8225   -2.6442    0.1441 N.am      1 <0>        -0.5517
     11 N3          6.0229   -1.9218    0.1358 N.2       1 <0>         0.1063
     12 N4          7.1503   -2.5433    0.2185 N.2       1 <0>        -0.2373
     13 C8          8.3229   -1.8376    0.2104 C.ar      1 <0>         0.5426
     14 N5          8.2743   -0.5108    0.1219 N.ar      1 <0>        -0.5870
     15 C9          9.3840    0.2163    0.1104 C.ar      1 <0>         0.5204
     16 C10        10.6232   -0.4450    0.1941 C.ar      1 <0>        -0.0908
     17 C11        10.6261   -1.8480    0.2861 C.ar      1 <0>         0.3217
     18 N6          9.4692   -2.4986    0.2964 N.ar      1 <0>        -0.4945
     19 N7         11.9457   -2.2198    0.3538 N.pl3     1 <0>        -0.4663
     20 C12        12.6937   -1.0810    0.3038 C.2       1 <0>         0.2755
     21 N8         11.9159   -0.0416    0.2101 N.2       1 <0>        -0.4572
     22 C13        12.4565   -3.5887    0.4607 C.3       1 <0>         0.3113
     23 C14        12.6479   -4.2025   -0.9439 C.3       1 <0>         0.0787
     24 H1         12.7834   -3.4179   -1.6883 H         1 <0>         0.0865
     25 C15        13.9327   -5.0505   -0.8112 C.3       1 <0>         0.0475
     26 H2         14.7033   -4.6851   -1.4900 H         1 <0>         0.0878
     27 C16        14.3655   -4.8487    0.6579 C.3       1 <0>         0.0504
     28 H3         13.9802   -5.6556    1.2813 H         1 <0>         0.1011
     29 O2         13.7767   -3.5884    1.0463 O.3       1 <0>        -0.3463
     30 C17        15.8906   -4.7805    0.7593 C.3       1 <0>         0.0821
     31 O3         16.2740   -4.7109    2.1341 O.3       1 <0>        -0.5635
     32 O4         13.6524   -6.4278   -1.0688 O.3       1 <0>        -0.5384
     33 O5         11.5328   -5.0282   -1.2857 O.3       1 <0>        -0.5250
     34 N9          9.3239    1.5957    0.0176 N.pl3     1 <0>        -0.8118
     35 H4         -0.9594    1.9047    0.0454 H         1 <0>         0.1243
     36 H5         -0.6816   -0.1607    1.3546 H         1 <0>         0.1269
     37 H6          1.4648   -1.3644    1.3177 H         1 <0>         0.1354
     38 H7          3.0604    1.5813   -1.3400 H         1 <0>         0.1273
     39 H8          0.9097    2.7772   -1.2969 H         1 <0>         0.1276
     40 H9          4.4517   -0.1559   -0.1200 H         1 <0>         0.4209
     41 H10         4.8392   -3.6117    0.2119 H         1 <0>         0.4178
     42 H11        13.7726   -1.0464    0.3370 H         1 <0>         0.2282
     43 H12        11.7780   -4.2008    1.0549 H         1 <0>         0.1269
     44 H13        16.3251   -5.6712    0.3056 H         1 <0>         0.0674
     45 H14        16.2502   -3.8942    0.2365 H         1 <0>         0.0613
     46 H15        17.2297   -4.6651    2.2741 H         1 <0>         0.3871
     47 H16        14.4243   -7.0060   -0.9991 H         1 <0>         0.3878
     48 H17        11.6006   -5.4392   -2.1584 H         1 <0>         0.3916
     49 H18         8.4641    2.0410   -0.0399 H         1 <0>         0.4129
     50 H19        10.1417    2.1174    0.0101 H         1 <0>         0.4218
@<TRIPOS>BOND
     1    1    6 ar
     2    1    2 ar
     3    1   35 1
     4    2    3 ar
     5    2   36 1
     6    3    4 ar
     7    3   37 1
     8    4    5 ar
     9    4    7 1
    10    5    6 ar
    11    5   38 1
    12    6   39 1
    13    7    8 am
    14    7   40 1
    15    8    9 2
    16    8   10 am
    17   10   11 1
    18   10   41 1
    19   11   12 2
    20   12   13 1
    21   13   18 ar
    22   13   14 ar
    23   14   15 ar
    24   15   16 ar
    25   15   34 1
    26   16   21 1
    27   16   17 ar
    28   17   18 ar
    29   17   19 1
    30   19   20 1
    31   19   22 1
    32   20   21 2
    33   20   42 1
    34   22   29 1
    35   22   23 1
    36   22   43 1
    37   23   24 1
    38   23   25 1
    39   23   33 1
    40   25   26 1
    41   25   27 1
    42   25   32 1
    43   27   28 1
    44   27   29 1
    45   27   30 1
    46   30   31 1
    47   30   44 1
    48   30   45 1
    49   31   46 1
    50   32   47 1
    51   33   48 1
    52   34   49 1
    53   34   50 1
