@<TRIPOS>MOLECULE
CHEMBL513009
   51    55     0     0     0
SMALL
USER_CHARGES

@<TRIPOS>ATOM
      1 C1         -0.0162    1.3433    0.0094 C.2       1 <0>        -0.2194
      2 C2          1.3252    1.7744   -0.0011 C.2       1 <0>        -0.1204
      3 C3          2.0963    0.6547   -0.0144 C.2       1 <0>         0.0264
      4 O1          1.2798   -0.4166   -0.0124 O.3       1 <0>        -0.1598
      5 C4          0.0021   -0.0041    0.0020 C.2       1 <0>         0.0022
      6 C5          3.5735    0.6192   -0.0295 C.2       1 <0>         0.3387
      7 N1          4.3781    1.6969   -0.0263 N.2       1 <0>        -0.4669
      8 C6          5.6266    1.3134   -0.0406 C.2       1 <0>         0.4618
      9 N2          6.7900    2.0161   -0.0356 N.2       1 <0>        -0.4508
     10 C7          7.9082    1.3629   -0.2463 C.2       1 <0>         0.4253
     11 N3          7.9175    0.0200   -0.5059 N.pl3     1 <0>        -0.6428
     12 C8          6.8369   -0.7538   -0.0843 C.2       1 <0>         0.6140
     13 N4          5.6347   -0.0659   -0.0582 N.pl3     1 <0>        -0.4166
     14 N5          4.3132   -0.4780   -0.0424 N.2       1 <0>        -0.2630
     15 N6          6.9474   -2.0073    0.2529 N.2       1 <0>        -0.6625
     16 C9          9.2155    2.1113   -0.2016 C.3       1 <0>         0.1047
     17 N7          8.9590    3.5279    0.0906 N.3       1 <0>        -0.6719
     18 C10        10.2135    4.2904    0.1420 C.3       1 <0>         0.1893
     19 H1         11.0175    3.7123   -0.3136 H         1 <0>         0.1388
     20 C11        10.0439    5.6313   -0.6028 C.3       1 <0>        -0.1440
     21 C12         9.7350    6.6307    0.5429 C.3       1 <0>        -0.1383
     22 C13        10.6197    6.0774    1.6878 C.3       1 <0>        -0.0073
     23 N8         10.5527    4.6043    1.5421 N.4       1 <0>        -0.3892
     24 C14        11.8532    4.0111    1.8807 C.3       1 <0>         0.0477
     25 C15        12.1389    4.2290    3.3443 C.ar      1 <0>        -0.0964
     26 C16        12.8063    5.3659    3.7756 C.ar      1 <0>        -0.1495
     27 C17        13.0511    5.5324    5.1250 C.ar      1 <0>         0.1366
     28 N9         12.6587    4.6258    5.9991 N.ar      1 <0>        -0.4527
     29 C18        12.0216    3.5323    5.6256 C.ar      1 <0>         0.1838
     30 C19        11.7361    3.3011    4.2912 C.ar      1 <0>        -0.1356
     31 Cl1        11.5296    2.3745    6.8218 Cl        1 <0>         0.0008
     32 H2         -0.8931    1.9736    0.0252 H         1 <0>         0.1625
     33 H3          1.6735    2.7967    0.0008 H         1 <0>         0.1634
     34 H4         -0.8667   -0.6456    0.0076 H         1 <0>         0.2166
     35 H5          6.1646   -2.5032    0.5397 H         1 <0>         0.3833
     36 H6          9.8496    1.6886    0.5778 H         1 <0>         0.1257
     37 H7          9.7172    2.0241   -1.1653 H         1 <0>         0.1015
     38 H8          8.3211    3.9261   -0.5823 H         1 <0>         0.3981
     39 H9         10.9652    5.9062   -1.1162 H         1 <0>         0.1116
     40 H10         9.2111    5.5798   -1.3042 H         1 <0>         0.1160
     41 H11        10.0365    7.6422    0.2705 H         1 <0>         0.1193
     42 H12         8.6799    6.5992    0.8147 H         1 <0>         0.1046
     43 H13        11.6475    6.4221    1.5736 H         1 <0>         0.1321
     44 H14        10.2218    6.3817    2.6558 H         1 <0>         0.1335
     45 H15        11.8307    2.9419    1.6702 H         1 <0>         0.1397
     46 H16        12.6340    4.4826    1.2840 H         1 <0>         0.1456
     47 H17        13.1310    6.1118    3.0652 H         1 <0>         0.1535
     48 H18        13.5702    6.4150    5.4683 H         1 <0>         0.1801
     49 H19        11.2103    2.4067    3.9914 H         1 <0>         0.1545
     50 H20         9.8419    4.2338    2.1549 H         1 <0>         0.4306
     51 H21         8.6626   -0.3868   -0.9752 H         1 <0>         0.4449
@<TRIPOS>BOND
     1    1    5 2
     2    1    2 1
     3    1   32 1
     4    2    3 2
     5    2   33 1
     6    3    4 1
     7    3    6 1
     8    4    5 1
     9    5   34 1
    10    6   14 2
    11    6    7 1
    12    7    8 2
    13    8   13 1
    14    8    9 1
    15    9   10 2
    16   10   11 1
    17   10   16 1
    18   11   12 1
    19   11   51 1
    20   12   13 1
    21   12   15 2
    22   13   14 1
    23   15   35 1
    24   16   17 1
    25   16   36 1
    26   16   37 1
    27   17   18 1
    28   17   38 1
    29   18   19 1
    30   18   23 1
    31   18   20 1
    32   20   21 1
    33   20   39 1
    34   20   40 1
    35   21   22 1
    36   21   41 1
    37   21   42 1
    38   22   23 1
    39   22   43 1
    40   22   44 1
    41   23   24 1
    42   23   50 1
    43   24   25 1
    44   24   45 1
    45   24   46 1
    46   25   30 ar
    47   25   26 ar
    48   26   27 ar
    49   26   47 1
    50   27   28 ar
    51   27   48 1
    52   28   29 ar
    53   29   30 ar
    54   29   31 1
    55   30   49 1
