@<TRIPOS>MOLECULE
CHEMBL168334
   34    35     0     0     0
SMALL
USER_CHARGES

@<TRIPOS>ATOM
      1 C1          0.2622    1.4726    1.2301 C.ar      1 <0>        -0.1619
      2 C2          0.5725    0.2593    1.8225 C.ar      1 <0>        -0.1267
      3 C3          1.6840   -0.4458    1.4172 C.ar      1 <0>        -0.0888
      4 C4          2.5035    0.0689    0.4002 C.ar      1 <0>         0.0452
      5 C5          2.1804    1.2993   -0.1936 C.ar      1 <0>        -0.1523
      6 C6          1.0646    1.9890    0.2258 C.ar      1 <0>        -0.1273
      7 C7          3.6864   -0.6714   -0.0373 C.2       1 <0>        -0.3378
      8 C8          3.7138   -2.0547    0.0597 C.2       1 <0>         0.3365
      9 N1          4.8816   -2.6945    0.1452 N.pl3     1 <0>        -0.4699
     10 N2          4.9072   -3.9810    0.2354 N.2       1 <0>        -0.1347
     11 C9          6.0708   -4.6185    0.3205 C.2       1 <0>        -0.0474
     12 C10         6.0986   -6.0177    0.4186 C.ar      1 <0>        -0.0741
     13 C11         7.3243   -6.7095    0.5156 C.ar      1 <0>        -0.0334
     14 C12         7.3310   -8.0656    0.6099 C.ar      1 <0>        -0.0753
     15 C13         6.1480   -8.8012    0.6135 C.ar      1 <0>        -0.0440
     16 C14         4.9324   -8.1957    0.5224 C.ar      1 <0>        -0.1901
     17 C15         4.8509   -6.7950    0.4287 C.ar      1 <0>         0.2438
     18 O1          3.7659   -6.2360    0.3522 O.3       1 <0>        -0.4096
     19 N3          8.6253   -8.7771    0.7105 N.pl3     1 <0>         0.0430
     20 O2          9.6603   -8.1523    0.7082 O.2       1 <0>        -0.1763
     21 O3          8.6473   -9.9829    0.7949 O.3       1 <0>        -0.1753
     22 S1          2.2066   -2.9672    0.0700 S.3       1 <0>        -0.8277
     23 H1         -0.6136    2.0173    1.5504 H         1 <0>         0.1020
     24 H2         -0.0591   -0.1348    2.6049 H         1 <0>         0.1046
     25 H3          1.9245   -1.3913    1.8804 H         1 <0>         0.1306
     26 H4          2.8049    1.7037   -0.9765 H         1 <0>         0.1049
     27 H5          0.8142    2.9357   -0.2298 H         1 <0>         0.1033
     28 H6          4.5385   -0.1410   -0.4359 H         1 <0>         0.1000
     29 H7          6.9947   -4.0592    0.3142 H         1 <0>         0.1105
     30 H8          8.2556   -6.1627    0.5147 H         1 <0>         0.1489
     31 H9          6.1966   -9.8774    0.6900 H         1 <0>         0.1441
     32 H10         4.0309   -8.7903    0.5267 H         1 <0>         0.1485
     33 H11         3.4477   -6.1170   -0.5532 H         1 <0>         0.4194
     34 H12         5.7114   -2.1921    0.1395 H         1 <0>         0.3673
@<TRIPOS>BOND
     1    1    6 ar
     2    1    2 ar
     3    1   23 1
     4    2    3 ar
     5    2   24 1
     6    3    4 ar
     7    3   25 1
     8    4    5 ar
     9    4    7 1
    10    5    6 ar
    11    5   26 1
    12    6   27 1
    13    7    8 1
    14    7   28 1
    15    8    9 2
    16    8   22 1
    17    9   10 1
    18    9   34 1
    19   10   11 2
    20   11   12 1
    21   11   29 1
    22   12   17 ar
    23   12   13 ar
    24   13   14 ar
    25   13   30 1
    26   14   15 ar
    27   14   19 1
    28   15   16 ar
    29   15   31 1
    30   16   17 ar
    31   16   32 1
    32   17   18 1
    33   18   33 1
    34   19   20 2
    35   19   21 1
