@<TRIPOS>MOLECULE
CHEMBL605690
   56    59     0     0     0
SMALL
USER_CHARGES

@<TRIPOS>ATOM
      1 C1         -0.0187    1.5258    0.0104 C.3       1 <0>        -0.1679
      2 C2          0.0021   -0.0041    0.0020 C.3       1 <0>         0.1135
      3 N1         -1.3723   -0.5112    0.0124 N.am      1 <0>        -0.7272
      4 C3         -1.6006   -1.8394    0.0075 C.2       1 <0>         0.5161
      5 O1         -0.6682   -2.6149   -0.0056 O.2       1 <0>        -0.5033
      6 C4         -3.0144   -2.3611    0.0182 C.3       1 <0>         0.0316
      7 H1         -3.5805   -1.9494   -0.8174 H         1 <0>         0.1224
      8 C5         -3.7084   -2.0293    1.3638 C.3       1 <0>         0.0510
      9 H2         -3.0081   -2.1165    2.1945 H         1 <0>         0.0953
     10 C6         -4.8001   -3.1239    1.4442 C.3       1 <0>         0.0825
     11 H3         -4.8843   -3.5048    2.4620 H         1 <0>         0.0903
     12 C7         -4.2978   -4.2288    0.4946 C.3       1 <0>         0.3134
     13 O2         -3.0242   -3.8042   -0.0230 O.3       1 <0>        -0.3263
     14 N2         -4.1443   -5.4862    1.2305 N.pl3     1 <0>        -0.4737
     15 C8         -2.9966   -5.9535    1.7989 C.2       1 <0>         0.2707
     16 N3         -3.2189   -7.1007    2.3722 N.2       1 <0>        -0.4565
     17 C9         -4.5191   -7.4425    2.2093 C.ar      1 <0>        -0.1020
     18 C10        -5.1309   -6.4075    1.4794 C.ar      1 <0>         0.3138
     19 N4         -6.4223   -6.4970    1.1879 N.ar      1 <0>        -0.5336
     20 C11        -7.1314   -7.5463    1.5809 C.ar      1 <0>         0.5018
     21 N5         -6.5941   -8.5452    2.2757 N.ar      1 <0>        -0.5715
     22 C12        -5.3078   -8.5393    2.6016 C.ar      1 <0>         0.5152
     23 N6         -4.7575   -9.5824    3.3259 N.pl3     1 <0>        -0.8136
     24 C13        -8.5226   -7.6058    1.2465 C.1       1 <0>        -0.1257
     25 C14        -9.6631   -7.6546    0.9724 C.1       1 <0>        -0.0836
     26 C15       -11.0931   -7.7158    0.6287 C.3       1 <0>        -0.0050
     27 C16       -11.6962   -9.0076    1.1838 C.3       1 <0>        -0.0775
     28 C17       -13.1602   -9.0703    0.8319 C.ar      1 <0>        -0.0852
     29 C18       -14.1007   -8.5295    1.6886 C.ar      1 <0>        -0.1156
     30 C19       -15.4436   -8.5870    1.3658 C.ar      1 <0>        -0.1185
     31 C20       -15.8460   -9.1848    0.1862 C.ar      1 <0>        -0.1229
     32 C21       -14.9054   -9.7247   -0.6709 C.ar      1 <0>        -0.1184
     33 C22       -13.5622   -9.6635   -0.3502 C.ar      1 <0>        -0.1155
     34 O3         -6.0569   -2.6106    0.9981 O.3       1 <0>        -0.5311
     35 O4         -4.2936   -0.7261    1.3280 O.3       1 <0>        -0.5360
     36 H4          1.0039    1.9031    0.0027 H         1 <0>         0.0793
     37 H5         -0.5459    1.8868   -0.8726 H         1 <0>         0.0645
     38 H6         -0.5289    1.8773    0.9072 H         1 <0>         0.0637
     39 H7          0.5123   -0.3556   -0.8948 H         1 <0>         0.0731
     40 H8          0.5293   -0.3651    0.8851 H         1 <0>         0.0728
     41 H9         -2.1181    0.1091    0.0229 H         1 <0>         0.3979
     42 H10        -5.0029   -4.3610   -0.3260 H         1 <0>         0.1325
     43 H11        -2.0432   -5.4467    1.7763 H         1 <0>         0.2272
     44 H12        -3.8185   -9.5621    3.5683 H         1 <0>         0.4214
     45 H13        -5.3108  -10.3336    3.5911 H         1 <0>         0.4124
     46 H14       -11.6080   -6.8586    1.0625 H         1 <0>         0.0978
     47 H15       -11.2073   -7.6979   -0.4552 H         1 <0>         0.0979
     48 H16       -11.1812   -9.8648    0.7500 H         1 <0>         0.0803
     49 H17       -11.5819   -9.0255    2.2677 H         1 <0>         0.0803
     50 H18       -13.7864   -8.0625    2.6103 H         1 <0>         0.1227
     51 H19       -16.1785   -8.1651    2.0355 H         1 <0>         0.1219
     52 H20       -16.8952   -9.2303   -0.0657 H         1 <0>         0.1210
     53 H21       -15.2198  -10.1921   -1.5924 H         1 <0>         0.1220
     54 H22       -12.8270  -10.0820   -1.0216 H         1 <0>         0.1228
     55 H23        -6.3912   -1.8738    1.5276 H         1 <0>         0.3971
     56 H24        -3.6563   -0.0124    1.1882 H         1 <0>         0.3843
@<TRIPOS>BOND
     1    1    2 1
     2    1   36 1
     3    1   37 1
     4    1   38 1
     5    2    3 1
     6    2   39 1
     7    2   40 1
     8    3    4 am
     9    3   41 1
    10    4    5 2
    11    4    6 1
    12    6    7 1
    13    6   13 1
    14    6    8 1
    15    8    9 1
    16    8   10 1
    17    8   35 1
    18   10   11 1
    19   10   12 1
    20   10   34 1
    21   12   13 1
    22   12   14 1
    23   12   42 1
    24   14   18 1
    25   14   15 1
    26   15   16 2
    27   15   43 1
    28   16   17 1
    29   17   22 ar
    30   17   18 ar
    31   18   19 ar
    32   19   20 ar
    33   20   21 ar
    34   20   24 1
    35   21   22 ar
    36   22   23 1
    37   23   44 1
    38   23   45 1
    39   24   25 3
    40   25   26 1
    41   26   27 1
    42   26   46 1
    43   26   47 1
    44   27   28 1
    45   27   48 1
    46   27   49 1
    47   28   33 ar
    48   28   29 ar
    49   29   30 ar
    50   29   50 1
    51   30   31 ar
    52   30   51 1
    53   31   32 ar
    54   31   52 1
    55   32   33 ar
    56   32   53 1
    57   33   54 1
    58   34   55 1
    59   35   56 1
