@<TRIPOS>MOLECULE
CHEMBL513320
   34    37     0     0     0
SMALL
USER_CHARGES

@<TRIPOS>ATOM
      1 C1         -0.0162    1.3446    0.0094 C.2       1 <0>        -0.2232
      2 C2          1.3234    1.7757   -0.0010 C.2       1 <0>        -0.1317
      3 C3          2.0959    0.6545   -0.0144 C.2       1 <0>        -0.0030
      4 O1          1.2787   -0.4170   -0.0124 O.3       1 <0>        -0.1647
      5 C4          0.0021   -0.0041    0.0020 C.2       1 <0>        -0.0093
      6 C5          3.5700    0.6190   -0.0291 C.ar      1 <0>         0.2953
      7 C6          4.2266   -0.6118   -0.0477 C.ar      1 <0>        -0.2035
      8 C7          5.6184   -0.6402   -0.0615 C.ar      1 <0>         0.1025
      9 C8          6.3126    0.5911   -0.0561 C.ar      1 <0>        -0.1484
     10 C9          5.5737    1.7870   -0.0371 C.ar      1 <0>         0.4712
     11 N1          4.2524    1.7617   -0.0300 N.ar      1 <0>        -0.5302
     12 N2          6.2363    3.0022   -0.0311 N.pl3     1 <0>        -0.8332
     13 C10         7.7442    0.6199   -0.0693 C.1       1 <0>         0.2553
     14 N3          8.8800    0.6427   -0.0798 N.1       1 <0>        -0.4061
     15 C11         6.3523   -1.9264   -0.0809 C.ar      1 <0>        -0.0624
     16 C12         7.3675   -2.1379   -1.0139 C.ar      1 <0>        -0.0801
     17 C13         8.0502   -3.3359   -1.0309 C.ar      1 <0>        -0.0974
     18 C14         7.7308   -4.3342   -0.1218 C.ar      1 <0>         0.0491
     19 C15         6.7171   -4.1283    0.8134 C.ar      1 <0>         0.0335
     20 C16         6.0337   -2.9267    0.8376 C.ar      1 <0>        -0.0716
     21 O2          6.6002   -5.2498    1.5833 O.3       1 <0>        -0.3049
     22 C17         7.2691   -6.2916    0.8484 C.3       1 <0>         0.2124
     23 O3          8.2471   -5.5837    0.0641 O.3       1 <0>        -0.3052
     24 H1         -0.8933    1.9746    0.0252 H         1 <0>         0.1557
     25 H2          1.6714    2.7981    0.0006 H         1 <0>         0.1597
     26 H3         -0.8669   -0.6454    0.0069 H         1 <0>         0.2112
     27 H4          3.6615   -1.5322   -0.0509 H         1 <0>         0.1519
     28 H5          7.2059    3.0260   -0.0400 H         1 <0>         0.4129
     29 H6          5.7309    3.8301   -0.0180 H         1 <0>         0.4142
     30 H7          7.6187   -1.3633   -1.7234 H         1 <0>         0.1388
     31 H8          8.8357   -3.4978   -1.7543 H         1 <0>         0.1426
     32 H9          5.2512   -2.7644    1.5640 H         1 <0>         0.1445
     33 H10         7.7566   -6.9886    1.5300 H         1 <0>         0.1354
     34 H11         6.5659   -6.8159    0.2013 H         1 <0>         0.0889
@<TRIPOS>BOND
     1    1    5 2
     2    1    2 1
     3    1   24 1
     4    2    3 2
     5    2   25 1
     6    3    4 1
     7    3    6 1
     8    4    5 1
     9    5   26 1
    10    6   11 ar
    11    6    7 ar
    12    7    8 ar
    13    7   27 1
    14    8    9 ar
    15    8   15 1
    16    9   10 ar
    17    9   13 1
    18   10   11 ar
    19   10   12 1
    20   12   28 1
    21   12   29 1
    22   13   14 3
    23   15   20 ar
    24   15   16 ar
    25   16   17 ar
    26   16   30 1
    27   17   18 ar
    28   17   31 1
    29   18   23 1
    30   18   19 ar
    31   19   20 ar
    32   19   21 1
    33   20   32 1
    34   21   22 1
    35   22   23 1
    36   22   33 1
    37   22   34 1
