@<TRIPOS>MOLECULE
CHEMBL17859
   32    34     0     0     0
SMALL
USER_CHARGES

@<TRIPOS>ATOM
      1 C1         -0.0164    1.3592    0.0095 C.2       1 <0>         0.2638
      2 N1          1.2005    1.8201    0.0004 N.2       1 <0>        -0.4532
      3 C2          2.0747    0.7850   -0.0135 C.ar      1 <0>        -0.1059
      4 C3          3.4758    0.6753   -0.0279 C.ar      1 <0>         0.5257
      5 N2          4.0162   -0.5385   -0.0400 N.ar      1 <0>        -0.5777
      6 C4          3.2613   -1.6237   -0.0386 C.ar      1 <0>         0.4288
      7 N3          1.9451   -1.5686   -0.0258 N.ar      1 <0>        -0.5308
      8 C5          1.3163   -0.3974   -0.0126 C.ar      1 <0>         0.3213
      9 N4          0.0021   -0.0041    0.0020 N.pl3     1 <0>        -0.4656
     10 C6         -1.1670   -0.8869    0.0084 C.3       1 <0>         0.1849
     11 C7         -1.4673   -1.4023   -1.4126 C.3       1 <0>         0.1019
     12 C8         -1.4857   -2.9266   -1.5165 C.3       1 <0>         0.0797
     13 C9         -0.5023   -3.5489   -0.4861 C.3       1 <0>        -0.0737
     14 S1         -0.8116   -2.4291    0.9494 S.3       1 <0>        -0.1809
     15 C10        -0.8801   -4.9946   -0.1573 C.3       1 <0>         0.0906
     16 O1         -0.9571   -5.7534   -1.3657 O.3       1 <0>        -0.5708
     17 O2         -2.8076   -3.4024   -1.2554 O.3       1 <0>        -0.5377
     18 O3         -2.7409   -0.9000   -1.8223 O.3       1 <0>        -0.5376
     19 Cl1         4.0328   -3.1787   -0.0548 Cl        1 <0>         0.0334
     20 N5          4.2743    1.8056   -0.0299 N.pl3     1 <0>        -0.8098
     21 H1         -0.9091    1.9668    0.0254 H         1 <0>         0.2283
     22 H2         -2.0333   -0.3730    0.4251 H         1 <0>         0.1613
     23 H3         -0.7082   -1.0150   -2.0923 H         1 <0>         0.0772
     24 H4         -1.1891   -3.2232   -2.5226 H         1 <0>         0.0844
     25 H5          0.5298   -3.4789   -0.8295 H         1 <0>         0.1282
     26 H6         -0.1234   -5.4282    0.4964 H         1 <0>         0.0645
     27 H7         -1.8474   -5.0121    0.3450 H         1 <0>         0.0668
     28 H8         -1.1929   -6.6818   -1.2328 H         1 <0>         0.3911
     29 H9         -2.8962   -4.3641   -1.3037 H         1 <0>         0.3842
     30 H10        -3.0068   -1.1786   -2.7093 H         1 <0>         0.3911
     31 H11         3.8680    2.6864   -0.0214 H         1 <0>         0.4227
     32 H12         5.2402    1.7170   -0.0399 H         1 <0>         0.4138
@<TRIPOS>BOND
     1    1    9 1
     2    1    2 2
     3    1   21 1
     4    2    3 1
     5    3    8 ar
     6    3    4 ar
     7    4    5 ar
     8    4   20 1
     9    5    6 ar
    10    6    7 ar
    11    6   19 1
    12    7    8 ar
    13    8    9 1
    14    9   10 1
    15   10   14 1
    16   10   11 1
    17   10   22 1
    18   11   12 1
    19   11   18 1
    20   11   23 1
    21   12   13 1
    22   12   17 1
    23   12   24 1
    24   13   14 1
    25   13   15 1
    26   13   25 1
    27   15   16 1
    28   15   26 1
    29   15   27 1
    30   16   28 1
    31   17   29 1
    32   18   30 1
    33   20   31 1
    34   20   32 1
