@<TRIPOS>MOLECULE
CHEMBL374881
   65    71     0     0     0
SMALL
USER_CHARGES

@<TRIPOS>ATOM
      1 C1         -0.0168    1.3887    0.0097 C.ar      1 <0>        -0.1564
      2 C2          1.1576    2.0864    0.0022 C.ar      1 <0>        -0.0651
      3 C3          2.3624    1.3586   -0.0132 C.ar      1 <0>        -0.0679
      4 C4          3.6070    2.0073   -0.0210 C.ar      1 <0>        -0.1270
      5 C5          4.7540    1.2656   -0.0356 C.ar      1 <0>         0.1148
      6 C6          4.7018   -0.1318   -0.0432 C.ar      1 <0>        -0.1812
      7 C7          3.5113   -0.7885   -0.0359 C.ar      1 <0>        -0.0440
      8 C8          2.3095   -0.0578   -0.0203 C.ar      1 <0>         0.0996
      9 N1          1.1261   -0.6788   -0.0118 N.ar      1 <0>        -0.4678
     10 C9          0.0021   -0.0041    0.0020 C.ar      1 <0>         0.1319
     11 O1          5.9595    1.8928   -0.0432 O.3       1 <0>        -0.2998
     12 C10         7.1226    1.0628   -0.0583 C.3       1 <0>         0.0472
     13 C11         8.3757    1.9407   -0.0650 C.3       1 <0>        -0.1106
     14 H1          8.3293    2.6374   -0.9020 H         1 <0>         0.1348
     15 C12         8.4622    2.7226    1.2501 C.3       1 <0>        -0.1281
     16 C13         8.5766    1.7254    2.4040 C.3       1 <0>        -0.1434
     17 C14         9.7996    0.8255    2.1959 C.3       1 <0>         0.0154
     18 H2         10.7045    1.4332    2.1981 H         1 <0>         0.1485
     19 C15         9.8497   -0.1754    3.3583 C.3       1 <0>         0.1089
     20 N2         10.9146   -1.1549    3.1059 N.pl3     1 <0>        -0.5973
     21 C16        10.9300   -1.8258    1.7959 C.3       1 <0>         0.0885
     22 C17        10.8656   -0.7473    0.7122 C.3       1 <0>        -0.0216
     23 N3          9.6896    0.1131    0.9187 N.4       1 <0>        -0.3842
     24 C18         9.6174    1.0602   -0.1994 C.3       1 <0>         0.0001
     25 C19        11.8606   -1.4340    4.0563 C.2       1 <0>         0.6715
     26 N4         12.8428   -2.3533    3.7767 N.pl3     1 <0>        -0.6593
     27 C20        14.0397   -2.2931    4.4899 C.2       1 <0>         0.6288
     28 N5         13.9028   -1.7905    5.7735 N.pl3     1 <0>        -0.4288
     29 C21        12.7912   -1.0491    6.1175 C.2       1 <0>         0.4988
     30 N6         11.8114   -0.8086    5.2208 N.2       1 <0>        -0.5255
     31 N7         12.9290   -0.6965    7.3698 N.2       1 <0>        -0.4811
     32 C22        14.0849   -1.1873    7.8529 C.2       1 <0>         0.3442
     33 N8         14.7044   -1.8643    6.9005 N.2       1 <0>        -0.2731
     34 C23        14.5840   -0.9991    9.2310 C.2       1 <0>         0.0279
     35 C24        13.9549   -0.3106   10.2203 C.2       1 <0>        -0.1213
     36 C25        14.7824   -0.3880   11.3581 C.2       1 <0>        -0.2192
     37 C26        15.8644   -1.1123   11.0108 C.2       1 <0>         0.0001
     38 O2         15.7384   -1.4848    9.7268 O.3       1 <0>        -0.1602
     39 N9         15.1822   -2.6753    3.9945 N.2       1 <0>        -0.6687
     40 H3         -0.9590    1.9164    0.0260 H         1 <0>         0.1451
     41 H4          1.1616    3.1663    0.0076 H         1 <0>         0.1440
     42 H5          3.6576    3.0861   -0.0159 H         1 <0>         0.1407
     43 H6          5.6213   -0.6982   -0.0554 H         1 <0>         0.1281
     44 H7          3.4884   -1.8682   -0.0419 H         1 <0>         0.1428
     45 H8         -0.9341   -0.5425    0.0084 H         1 <0>         0.1655
     46 H9          7.1280    0.4286    0.8282 H         1 <0>         0.0561
     47 H10         7.1117    0.4383   -0.9517 H         1 <0>         0.0763
     48 H11         9.3409    3.3674    1.2353 H         1 <0>         0.0895
     49 H12         7.5638    3.3268    1.3764 H         1 <0>         0.1075
     50 H13         8.6825    2.2687    3.3430 H         1 <0>         0.1230
     51 H14         7.6772    1.1109    2.4421 H         1 <0>         0.0926
     52 H15        10.0560    0.3557    4.2875 H         1 <0>         0.1543
     53 H16         8.8923   -0.6904    3.4370 H         1 <0>         0.1045
     54 H17        11.8487   -2.4024    1.6879 H         1 <0>         0.1290
     55 H18        10.0673   -2.4865    1.7100 H         1 <0>         0.1142
     56 H19        11.7671   -0.1362    0.7559 H         1 <0>         0.1402
     57 H20        10.7990   -1.2216   -0.2669 H         1 <0>         0.1543
     58 H21         9.5717    0.5129   -1.1408 H         1 <0>         0.1400
     59 H22        10.5080    1.6887   -0.1927 H         1 <0>         0.1411
     60 H23        13.0049    0.1979   10.1479 H         1 <0>         0.1634
     61 H24        14.5868    0.0505   12.3255 H         1 <0>         0.1618
     62 H25        16.6931   -1.3567   11.6589 H         1 <0>         0.2159
     63 H26        15.9883   -2.6138    4.5306 H         1 <0>         0.3850
     64 H27        12.7061   -3.0313    3.0966 H         1 <0>         0.4370
     65 H28         8.8573   -0.4572    0.9217 H         1 <0>         0.4187
@<TRIPOS>BOND
     1    1   10 ar
     2    1    2 ar
     3    1   40 1
     4    2    3 ar
     5    2   41 1
     6    3    8 ar
     7    3    4 ar
     8    4    5 ar
     9    4   42 1
    10    5    6 ar
    11    5   11 1
    12    6    7 ar
    13    6   43 1
    14    7    8 ar
    15    7   44 1
    16    8    9 ar
    17    9   10 ar
    18   10   45 1
    19   11   12 1
    20   12   13 1
    21   12   46 1
    22   12   47 1
    23   13   14 1
    24   13   24 1
    25   13   15 1
    26   15   16 1
    27   15   48 1
    28   15   49 1
    29   16   17 1
    30   16   50 1
    31   16   51 1
    32   17   18 1
    33   17   23 1
    34   17   19 1
    35   19   20 1
    36   19   52 1
    37   19   53 1
    38   20   21 1
    39   20   25 1
    40   21   22 1
    41   21   54 1
    42   21   55 1
    43   22   23 1
    44   22   56 1
    45   22   57 1
    46   23   24 1
    47   23   65 1
    48   24   58 1
    49   24   59 1
    50   25   30 2
    51   25   26 1
    52   26   27 1
    53   26   64 1
    54   27   28 1
    55   27   39 2
    56   28   33 1
    57   28   29 1
    58   29   30 1
    59   29   31 2
    60   31   32 1
    61   32   33 2
    62   32   34 1
    63   34   38 1
    64   34   35 2
    65   35   36 1
    66   35   60 1
    67   36   37 2
    68   36   61 1
    69   37   38 1
    70   37   62 1
    71   39   63 1
