@<TRIPOS>MOLECULE
CHEMBL426821
   39    41     0     0     0
SMALL
USER_CHARGES

@<TRIPOS>ATOM
      1 C1         -0.0187    1.5258    0.0104 C.3       1 <0>        -0.1557
      2 C2          0.0021   -0.0041    0.0020 C.3       1 <0>        -0.1234
      3 C3         -1.4333   -0.5336    0.0129 C.3       1 <0>        -0.1345
      4 C4         -1.4126   -2.0635    0.0045 C.3       1 <0>         0.1130
      5 N1         -2.7870   -2.5706    0.0149 N.am      1 <0>        -0.7152
      6 C5         -3.0152   -3.8988    0.0099 C.2       1 <0>         0.5741
      7 O1         -2.0805   -4.6763   -0.0032 O.2       1 <0>        -0.4762
      8 C6         -4.4008   -4.4100    0.0204 C.2       1 <0>         0.0016
      9 C7         -4.6121   -5.7561    0.0208 C.2       1 <0>         0.1958
     10 N2         -5.8764   -6.2537    0.0304 N.pl3     1 <0>        -0.2745
     11 C8         -6.9391   -5.3904    0.0400 C.2       1 <0>         0.2275
     12 C9         -6.6714   -3.9519    0.0397 C.cat     1 <0>         0.5721
     13 N3         -5.4222   -3.5352    0.0348 N.pl3     1 <0>        -0.4926
     14 N4         -7.7165   -3.0418    0.0488 N.pl3     1 <0>        -0.7453
     15 N5         -8.0439   -6.1124    0.0480 N.2       1 <0>        -0.4317
     16 C10        -7.7330   -7.4110    0.0438 C.2       1 <0>         0.3666
     17 N6         -6.4164   -7.5448    0.0331 N.2       1 <0>        -0.2150
     18 C11        -8.7058   -8.5235    0.0507 C.2       1 <0>        -0.0001
     19 C12        -8.4023   -9.8487    0.0520 C.2       1 <0>        -0.1027
     20 C13        -9.6268  -10.5455    0.0592 C.2       1 <0>        -0.2196
     21 C14       -10.6071   -9.6208    0.0618 C.2       1 <0>         0.0245
     22 O2        -10.0472   -8.4006    0.0626 O.3       1 <0>        -0.1532
     23 H1          1.0039    1.9031    0.0027 H         1 <0>         0.0620
     24 H2         -0.5459    1.8868   -0.8726 H         1 <0>         0.0556
     25 H3         -0.5289    1.8773    0.9072 H         1 <0>         0.0556
     26 H4          0.5123   -0.3556   -0.8948 H         1 <0>         0.0695
     27 H5          0.5293   -0.3651    0.8851 H         1 <0>         0.0695
     28 H6         -1.9435   -0.1821    0.9097 H         1 <0>         0.0724
     29 H7         -1.9605   -0.1726   -0.8702 H         1 <0>         0.0724
     30 H8         -0.9024   -2.4150   -0.8923 H         1 <0>         0.0857
     31 H9         -0.8854   -2.4246    0.8875 H         1 <0>         0.0857
     32 H10        -3.5327   -1.9503    0.0253 H         1 <0>         0.3928
     33 H11        -3.7695   -6.4316    0.0132 H         1 <0>         0.2335
     34 H12        -8.6339   -3.3568    0.0554 H         1 <0>         0.4586
     35 H13        -7.5306   -2.0897    0.0485 H         1 <0>         0.4410
     36 H14        -7.4136  -10.2833    0.0480 H         1 <0>         0.1671
     37 H15        -9.7554  -11.6178    0.0617 H         1 <0>         0.1686
     38 H16       -11.6672   -9.8271    0.0672 H         1 <0>         0.2232
     39 H17        -5.2360   -2.5833    0.0379 H         1 <0>         0.4510
@<TRIPOS>BOND
     1    1    2 1
     2    1   23 1
     3    1   24 1
     4    1   25 1
     5    2    3 1
     6    2   26 1
     7    2   27 1
     8    3    4 1
     9    3   28 1
    10    3   29 1
    11    4    5 1
    12    4   30 1
    13    4   31 1
    14    5    6 am
    15    5   32 1
    16    6    7 2
    17    6    8 1
    18    8   13 1
    19    8    9 2
    20    9   10 1
    21    9   33 1
    22   10   17 1
    23   10   11 1
    24   11   12 1
    25   11   15 2
    26   12   13 2
    27   12   14 1
    28   13   39 1
    29   14   34 1
    30   14   35 1
    31   15   16 1
    32   16   17 2
    33   16   18 1
    34   18   22 1
    35   18   19 2
    36   19   20 1
    37   19   36 1
    38   20   21 2
    39   20   37 1
    40   21   22 1
    41   21   38 1
