@<TRIPOS>MOLECULE
CHEMBL551368
   39    41     0     0     0
SMALL
USER_CHARGES

@<TRIPOS>ATOM
      1 C1         -0.0184    1.5028    0.0103 C.3       1 <0>        -0.1236
      2 C2          0.0021   -0.0041    0.0020 C.ar      1 <0>        -0.0637
      3 C3          0.0057   -0.6888   -1.1991 C.ar      1 <0>        -0.1231
      4 C4          0.0245   -2.0707   -1.2067 C.ar      1 <0>        -0.1054
      5 C5          0.0400   -2.7685   -0.0132 C.ar      1 <0>        -0.1276
      6 C6          0.0373   -2.0840    1.1875 C.ar      1 <0>        -0.0941
      7 C7          0.0229   -0.7015    1.1951 C.ar      1 <0>        -0.1149
      8 C8          0.0252    0.0449    2.5043 C.3       1 <0>         0.1594
      9 N1         -1.3380    0.4767    2.8227 N.am      1 <0>        -0.7016
     10 C9         -1.5792    1.1669    3.9549 C.2       1 <0>         0.5722
     11 O1         -0.6661    1.4309    4.7115 O.2       1 <0>        -0.5164
     12 C10        -2.9603    1.6043    4.2775 C.ar      1 <0>         0.1829
     13 C11        -3.2188    2.3221    5.4407 C.ar      1 <0>        -0.2143
     14 C12        -4.5406    2.7127    5.7010 C.ar      1 <0>         0.3048
     15 N2         -5.4942    2.3841    4.8301 N.ar      1 <0>        -0.5452
     16 C13        -5.2047    1.6997    3.7344 C.ar      1 <0>         0.5812
     17 N3         -3.9685    1.3195    3.4539 N.ar      1 <0>        -0.5524
     18 N4         -6.2234    1.3771    2.8542 N.pl3     1 <0>        -0.8159
     19 C14        -4.8700    3.4749    6.9200 C.2       1 <0>        -0.0053
     20 C15        -6.1099    3.9039    7.2838 C.2       1 <0>        -0.1263
     21 C16        -5.9607    4.5835    8.5069 C.2       1 <0>        -0.2242
     22 C17        -4.6514    4.5375    8.8280 C.2       1 <0>        -0.0038
     23 O2         -3.9971    3.8630    7.8704 O.3       1 <0>        -0.1620
     24 H1          1.0042    1.8801    0.0026 H         1 <0>         0.0745
     25 H2         -0.5455    1.8639   -0.8728 H         1 <0>         0.0691
     26 H3         -0.5286    1.8543    0.9071 H         1 <0>         0.0695
     27 H4         -0.0064   -0.1437   -2.1314 H         1 <0>         0.1244
     28 H5          0.0266   -2.6056   -2.1449 H         1 <0>         0.1241
     29 H6          0.0540   -3.8484   -0.0191 H         1 <0>         0.1246
     30 H7          0.0491   -2.6290    2.1199 H         1 <0>         0.1249
     31 H8          0.3931   -0.6092    3.2948 H         1 <0>         0.0809
     32 H9          0.6733    0.9176    2.4238 H         1 <0>         0.0831
     33 H10        -2.0671    0.2659    2.2186 H         1 <0>         0.4139
     34 H11        -2.4223    2.5718    6.1260 H         1 <0>         0.1628
     35 H12        -7.1340    1.6521    3.0444 H         1 <0>         0.4179
     36 H13        -6.0267    0.8760    2.0472 H         1 <0>         0.4181
     37 H14        -7.0299    3.7525    6.7387 H         1 <0>         0.1604
     38 H15        -6.7462    5.0534    9.0801 H         1 <0>         0.1576
     39 H16        -4.2044    4.9690    9.7113 H         1 <0>         0.2132
@<TRIPOS>BOND
     1    1    2 1
     2    1   24 1
     3    1   25 1
     4    1   26 1
     5    2    7 ar
     6    2    3 ar
     7    3    4 ar
     8    3   27 1
     9    4    5 ar
    10    4   28 1
    11    5    6 ar
    12    5   29 1
    13    6    7 ar
    14    6   30 1
    15    7    8 1
    16    8    9 1
    17    8   31 1
    18    8   32 1
    19    9   10 am
    20    9   33 1
    21   10   11 2
    22   10   12 1
    23   12   17 ar
    24   12   13 ar
    25   13   14 ar
    26   13   34 1
    27   14   15 ar
    28   14   19 1
    29   15   16 ar
    30   16   17 ar
    31   16   18 1
    32   18   35 1
    33   18   36 1
    34   19   23 1
    35   19   20 2
    36   20   21 1
    37   20   37 1
    38   21   22 2
    39   21   38 1
    40   22   23 1
    41   22   39 1
