@<TRIPOS>MOLECULE
CHEMBL179478
   49    53     0     0     0
SMALL
USER_CHARGES

@<TRIPOS>ATOM
      1 C1         -0.0162    1.3433    0.0094 C.2       1 <0>        -0.2197
      2 C2          1.3252    1.7744   -0.0011 C.2       1 <0>        -0.1244
      3 C3          2.0963    0.6547   -0.0144 C.2       1 <0>         0.0319
      4 O1          1.2798   -0.4167   -0.0124 O.3       1 <0>        -0.1587
      5 C4          0.0021   -0.0041    0.0020 C.2       1 <0>        -0.0010
      6 C5          3.5735    0.6192   -0.0292 C.2       1 <0>         0.3315
      7 N1          4.3782    1.6975   -0.0257 N.2       1 <0>        -0.4759
      8 C6          5.6284    1.3133   -0.0438 C.2       1 <0>         0.4979
      9 N2          6.7827    2.0136   -0.0426 N.2       1 <0>        -0.5209
     10 C7          7.9149    1.3544   -0.2245 C.2       1 <0>         0.6586
     11 N3          7.9251    0.0030   -0.4737 N.pl3     1 <0>        -0.7071
     12 C8          6.8335   -0.7612   -0.0614 C.2       1 <0>         0.6311
     13 N4          5.6350   -0.0666   -0.0535 N.pl3     1 <0>        -0.3826
     14 N5          4.3125   -0.4776   -0.0421 N.2       1 <0>        -0.2427
     15 N6          6.9320   -2.0133    0.2840 N.2       1 <0>        -0.6524
     16 N7          9.1029    2.0335   -0.1638 N.pl3     1 <0>        -0.7167
     17 C9          9.1102    3.4745    0.1004 C.3       1 <0>         0.1124
     18 C10        10.5532    3.9828    0.1160 C.3       1 <0>         0.0091
     19 H1         10.9918    3.8839   -0.8769 H         1 <0>         0.1538
     20 C11        10.5845    5.4607    0.5589 C.3       1 <0>        -0.1299
     21 C12        10.9145    5.3653    2.0718 C.3       1 <0>        -0.1419
     22 C13        11.8799    4.1543    2.1057 C.3       1 <0>        -0.0096
     23 N8         11.3454    3.2136    1.0932 N.4       1 <0>        -0.4006
     24 C14        12.4548    2.5375    0.4076 C.3       1 <0>         0.0901
     25 C15        13.1875    1.6562    1.3860 C.2       1 <0>        -0.0952
     26 C16        12.9116    0.3648    1.6406 C.2       1 <0>        -0.1291
     27 C17        13.8387   -0.0679    2.6167 C.2       1 <0>        -0.1817
     28 C18        14.6266    0.9865    2.9004 C.2       1 <0>         0.0687
     29 O2         14.2310    2.0260    2.1477 O.3       1 <0>        -0.1582
     30 Cl1        15.9361    0.9981    4.0401 Cl        1 <0>         0.0647
     31 H2         -0.8931    1.9736    0.0252 H         1 <0>         0.1611
     32 H3          1.6735    2.7967    0.0011 H         1 <0>         0.1630
     33 H4         -0.8667   -0.6456    0.0069 H         1 <0>         0.2152
     34 H5          7.7947   -2.4563    0.2614 H         1 <0>         0.3685
     35 H6          9.9393    1.5604   -0.2957 H         1 <0>         0.4076
     36 H7          8.5519    3.9900   -0.6811 H         1 <0>         0.1319
     37 H8          8.6460    3.6690    1.0672 H         1 <0>         0.1114
     38 H9         11.3648    6.0058    0.0278 H         1 <0>         0.1111
     39 H10         9.6126    5.9297    0.4053 H         1 <0>         0.1245
     40 H11        11.4114    6.2706    2.4209 H         1 <0>         0.1239
     41 H12        10.0161    5.1650    2.6556 H         1 <0>         0.1032
     42 H13        12.8891    4.4659    1.8366 H         1 <0>         0.1369
     43 H14        11.8749    3.6926    3.0930 H         1 <0>         0.1342
     44 H15        12.0616    1.9283   -0.4063 H         1 <0>         0.1540
     45 H16        13.1411    3.2824    0.0050 H         1 <0>         0.1541
     46 H17        12.1310   -0.2280    1.1869 H         1 <0>         0.1684
     47 H18        13.9024   -1.0545    3.0515 H         1 <0>         0.1756
     48 H19        10.7572    2.5280    1.5427 H         1 <0>         0.4236
     49 H20         8.6760   -0.4109   -0.9272 H         1 <0>         0.4304
@<TRIPOS>BOND
     1    1    5 2
     2    1    2 1
     3    1   31 1
     4    2    3 2
     5    2   32 1
     6    3    4 1
     7    3    6 1
     8    4    5 1
     9    5   33 1
    10    6   14 2
    11    6    7 1
    12    7    8 2
    13    8   13 1
    14    8    9 1
    15    9   10 2
    16   10   11 1
    17   10   16 1
    18   11   12 1
    19   11   49 1
    20   12   13 1
    21   12   15 2
    22   13   14 1
    23   15   34 1
    24   16   17 1
    25   16   35 1
    26   17   18 1
    27   17   36 1
    28   17   37 1
    29   18   19 1
    30   18   23 1
    31   18   20 1
    32   20   21 1
    33   20   38 1
    34   20   39 1
    35   21   22 1
    36   21   40 1
    37   21   41 1
    38   22   23 1
    39   22   42 1
    40   22   43 1
    41   23   24 1
    42   23   48 1
    43   24   25 1
    44   24   44 1
    45   24   45 1
    46   25   29 1
    47   25   26 2
    48   26   27 1
    49   26   46 1
    50   27   28 2
    51   27   47 1
    52   28   29 1
    53   28   30 1
