@<TRIPOS>MOLECULE
CHEMBL409419
   60    63     0     0     0
SMALL
USER_CHARGES

@<TRIPOS>ATOM
      1 C1         -0.0184    1.5028    0.0103 C.3       1 <0>        -0.0743
      2 C2          0.0021   -0.0041    0.0020 C.2       1 <0>         0.0018
      3 C3         -1.0830   -0.8050    0.0027 C.2       1 <0>        -0.2231
      4 C4         -0.6160   -2.1327   -0.0076 C.2       1 <0>        -0.1253
      5 C5          0.7432   -2.0699   -0.0140 C.2       1 <0>         0.0272
      6 O1          1.1026   -0.7711   -0.0131 O.3       1 <0>        -0.1554
      7 C6          1.6636   -3.2233   -0.0254 C.ar      1 <0>         0.4285
      8 N1          1.1605   -4.4518   -0.0358 N.ar      1 <0>        -0.5023
      9 C7          1.9636   -5.5156   -0.0467 C.ar      1 <0>         0.4310
     10 C8          3.3494   -5.3203   -0.0472 C.ar      1 <0>        -0.2410
     11 C9          3.8342   -4.0177   -0.0362 C.ar      1 <0>         0.4127
     12 N2          2.9738   -3.0053   -0.0307 N.ar      1 <0>        -0.5669
     13 N3          5.2095   -3.7758   -0.0363 N.pl3     1 <0>        -0.3213
     14 C10         5.8246   -2.6507   -0.4862 C.2       1 <0>         0.1164
     15 C11         7.1557   -2.8140   -0.3105 C.2       1 <0>        -0.2719
     16 C12         7.3642   -4.0739    0.2630 C.2       1 <0>         0.0868
     17 N4          6.2010   -4.6472    0.4329 N.2       1 <0>        -0.2841
     18 C13         8.7009   -4.6659    0.6288 C.3       1 <0>        -0.0716
     19 C14         5.1465   -1.4404   -1.0747 C.3       1 <0>        -0.0860
     20 N5          1.4410   -6.7794   -0.0569 N.2       1 <0>        -0.6764
     21 C15         0.1507   -6.9501   -0.0559 C.2       1 <0>         0.3858
     22 O2         -0.6697   -5.8823   -0.0449 O.3       1 <0>        -0.6094
     23 C16        -0.4251   -8.3427   -0.0671 C.3       1 <0>         0.0285
     24 N6          0.6677   -9.3244   -0.0779 N.4       1 <0>        -0.3472
     25 C17         0.0968  -10.6721   -0.2870 C.3       1 <0>        -0.0007
     26 C18         1.1775  -11.5801   -0.8177 C.3       1 <0>        -0.1485
     27 C19         1.8891  -12.3482    0.3099 C.3       1 <0>         0.0493
     28 N7          2.1458  -11.4965    1.4940 N.3       1 <0>        -0.5628
     29 C20         2.5973  -10.1640    1.1618 C.3       1 <0>         0.0484
     30 C21         1.3798   -9.2207    1.1212 C.3       1 <0>        -0.0374
     31 C22         3.0771  -12.1518    2.4219 C.3       1 <0>         0.0269
     32 H1          1.0042    1.8801    0.0026 H         1 <0>         0.0764
     33 H2         -0.5455    1.8639   -0.8728 H         1 <0>         0.0868
     34 H3         -0.5286    1.8543    0.9071 H         1 <0>         0.0867
     35 H4         -2.1153   -0.4875    0.0097 H         1 <0>         0.1516
     36 H5         -1.2198   -3.0281   -0.0096 H         1 <0>         0.1649
     37 H6          4.0262   -6.1619   -0.0556 H         1 <0>         0.1448
     38 H7          7.9227   -2.0984   -0.5674 H         1 <0>         0.1535
     39 H8          8.9503   -4.3940    1.6545 H         1 <0>         0.0792
     40 H9          8.6535   -5.7514    0.5420 H         1 <0>         0.0732
     41 H10         9.4657   -4.2806   -0.0455 H         1 <0>         0.0802
     42 H11         4.9099   -0.7338   -0.2793 H         1 <0>         0.0852
     43 H12         5.8119   -0.9660   -1.7961 H         1 <0>         0.0781
     44 H13         4.2274   -1.7460   -1.5746 H         1 <0>         0.0792
     45 H14        -1.0371   -8.4900    0.8228 H         1 <0>         0.1367
     46 H15        -1.0405   -8.4743   -0.9571 H         1 <0>         0.1369
     47 H16        -0.2757  -11.0622    0.6602 H         1 <0>         0.1344
     48 H17        -0.7193  -10.6156   -1.0074 H         1 <0>         0.1253
     49 H18         0.7316  -12.2962   -1.5079 H         1 <0>         0.1107
     50 H19         1.9114  -10.9806   -1.3563 H         1 <0>         0.0805
     51 H20         1.2677  -13.1921    0.6096 H         1 <0>         0.0880
     52 H21         2.8396  -12.7272   -0.0657 H         1 <0>         0.0518
     53 H22         3.3020   -9.8182    1.9180 H         1 <0>         0.1060
     54 H23         3.0827  -10.1757    0.1859 H         1 <0>         0.0613
     55 H24         1.7246   -8.1935    1.2398 H         1 <0>         0.1687
     56 H25         0.7149   -9.4662    1.9494 H         1 <0>         0.1165
     57 H26         4.0455  -12.2762    1.9373 H         1 <0>         0.0335
     58 H27         3.1937  -11.5370    3.3144 H         1 <0>         0.0764
     59 H28         2.6832  -13.1286    2.7026 H         1 <0>         0.0735
     60 H29         1.2881   -9.1122   -0.8448 H         1 <0>         0.4222
@<TRIPOS>BOND
     1    1    2 1
     2    1   32 1
     3    1   33 1
     4    1   34 1
     5    2    6 1
     6    2    3 2
     7    3    4 1
     8    3   35 1
     9    4    5 2
    10    4   36 1
    11    5    6 1
    12    5    7 1
    13    7   12 ar
    14    7    8 ar
    15    8    9 ar
    16    9   10 ar
    17    9   20 1
    18   10   11 ar
    19   10   37 1
    20   11   12 ar
    21   11   13 1
    22   13   17 1
    23   13   14 1
    24   14   15 2
    25   14   19 1
    26   15   16 1
    27   15   38 1
    28   16   17 2
    29   16   18 1
    30   18   39 1
    31   18   40 1
    32   18   41 1
    33   19   42 1
    34   19   43 1
    35   19   44 1
    36   20   21 2
    37   21   22 1
    38   21   23 1
    39   23   24 1
    40   23   45 1
    41   23   46 1
    42   24   30 1
    43   24   25 1
    44   24   60 1
    45   25   26 1
    46   25   47 1
    47   25   48 1
    48   26   27 1
    49   26   49 1
    50   26   50 1
    51   27   28 1
    52   27   51 1
    53   27   52 1
    54   28   29 1
    55   28   31 1
    56   29   30 1
    57   29   53 1
    58   29   54 1
    59   30   55 1
    60   30   56 1
    61   31   57 1
    62   31   58 1
    63   31   59 1
