@<TRIPOS>MOLECULE
CHEMBL179644
   42    46     0     0     0
SMALL
USER_CHARGES

@<TRIPOS>ATOM
      1 C1         -0.0167    1.3790    0.0096 C.ar      1 <0>        -0.1176
      2 C2          1.1687    2.0918    0.0021 C.ar      1 <0>        -0.1174
      3 C3          2.3774    1.4257   -0.0135 C.ar      1 <0>        -0.1103
      4 C4          2.4021    0.0327   -0.0212 C.ar      1 <0>        -0.0473
      5 C5          1.2051   -0.6804   -0.0131 C.ar      1 <0>        -0.1095
      6 C6          0.0021   -0.0041    0.0020 C.ar      1 <0>        -0.1171
      7 C7          3.6988   -0.6890   -0.0385 C.ar      1 <0>        -0.0521
      8 C8          4.8960    0.0259   -0.0412 C.ar      1 <0>        -0.0895
      9 C9          6.1036   -0.6439   -0.0573 C.ar      1 <0>        -0.1184
     10 C10         6.1335   -2.0245   -0.0712 C.ar      1 <0>        -0.0856
     11 C11         4.9424   -2.7503   -0.0691 C.ar      1 <0>        -0.0547
     12 C12         3.7220   -2.0797   -0.0462 C.ar      1 <0>        -0.0612
     13 C13         4.9755   -4.2320   -0.0850 C.2       1 <0>         0.2530
     14 C14         6.1892   -4.8952   -0.0963 C.2       1 <0>        -0.2170
     15 C15         6.1839   -6.3018   -0.1108 C.2       1 <0>         0.3539
     16 N1          7.1380   -7.2193   -0.1238 N.2       1 <0>        -0.5234
     17 C16         6.5879   -8.4376   -0.1344 C.2       1 <0>         0.3543
     18 N2          5.2717   -8.3240   -0.1285 N.2       1 <0>        -0.3210
     19 N3          4.9775   -6.9546   -0.1132 N.pl3     1 <0>        -0.3620
     20 C17         3.8176   -6.2408   -0.1013 C.2       1 <0>         0.6550
     21 N4          3.8278   -4.9276   -0.0829 N.2       1 <0>        -0.5507
     22 N5          2.6144   -6.9070   -0.1038 N.pl3     1 <0>        -0.8070
     23 C18         7.3354   -9.7125   -0.1510 C.2       1 <0>         0.0360
     24 C19         8.6884   -9.8440   -0.1522 C.2       1 <0>        -0.1264
     25 C20         8.9618  -11.2261   -0.1705 C.2       1 <0>        -0.2189
     26 C21         7.7745  -11.8633   -0.1795 C.2       1 <0>        -0.0074
     27 O1          6.7942  -10.9460   -0.1619 O.3       1 <0>        -0.1607
     28 H1         -0.9602    1.9042    0.0260 H         1 <0>         0.1233
     29 H2          1.1483    3.1716    0.0081 H         1 <0>         0.1250
     30 H3          3.3023    1.9833   -0.0200 H         1 <0>         0.1259
     31 H4          1.2187   -1.7603   -0.0194 H         1 <0>         0.1266
     32 H5         -0.9264   -0.5558    0.0083 H         1 <0>         0.1247
     33 H6          4.8788    1.1057   -0.0311 H         1 <0>         0.1303
     34 H7          7.0282   -0.0858   -0.0594 H         1 <0>         0.1339
     35 H8          7.0807   -2.5431   -0.0842 H         1 <0>         0.1344
     36 H9          2.7971   -2.6374   -0.0393 H         1 <0>         0.1400
     37 H10         7.1192   -4.3461   -0.0943 H         1 <0>         0.1679
     38 H11         2.5970   -7.8768   -0.1141 H         1 <0>         0.4247
     39 H12         1.7832   -6.4071   -0.0954 H         1 <0>         0.4296
     40 H13         9.4135   -9.0438   -0.1417 H         1 <0>         0.1632
     41 H14         9.9383  -11.6874   -0.1765 H         1 <0>         0.1598
     42 H15         7.6346  -12.9341   -0.1942 H         1 <0>         0.2135
@<TRIPOS>BOND
     1    1    6 ar
     2    1    2 ar
     3    1   28 1
     4    2    3 ar
     5    2   29 1
     6    3    4 ar
     7    3   30 1
     8    4    5 ar
     9    4    7 1
    10    5    6 ar
    11    5   31 1
    12    6   32 1
    13    7   12 ar
    14    7    8 ar
    15    8    9 ar
    16    8   33 1
    17    9   10 ar
    18    9   34 1
    19   10   11 ar
    20   10   35 1
    21   11   12 ar
    22   11   13 1
    23   12   36 1
    24   13   21 1
    25   13   14 2
    26   14   15 1
    27   14   37 1
    28   15   19 1
    29   15   16 2
    30   16   17 1
    31   17   18 2
    32   17   23 1
    33   18   19 1
    34   19   20 1
    35   20   21 2
    36   20   22 1
    37   22   38 1
    38   22   39 1
    39   23   27 1
    40   23   24 2
    41   24   25 1
    42   24   40 1
    43   25   26 2
    44   25   41 1
    45   26   27 1
    46   26   42 1
