@<TRIPOS>MOLECULE
CHEMBL196258
   39    41     0     0     0
SMALL
USER_CHARGES

@<TRIPOS>ATOM
      1 C1         -0.0187    1.5258    0.0104 C.3       1 <0>        -0.1538
      2 C2          0.0021   -0.0041    0.0020 C.3       1 <0>        -0.1257
      3 C3          0.7182   -0.4975   -1.2568 C.3       1 <0>        -0.1182
      4 C4          0.7390   -2.0273   -1.2652 C.3       1 <0>        -0.1106
      5 C5          1.4551   -2.5207   -2.5240 C.3       1 <0>        -0.0471
      6 C6          1.4755   -4.0276   -2.5323 C.ar      1 <0>         0.3947
      7 N1          2.4894   -4.6526   -1.9618 N.ar      1 <0>        -0.5815
      8 C7          2.5559   -5.9797   -1.9409 C.ar      1 <0>         0.5166
      9 C8          1.5179   -6.7119   -2.5426 C.ar      1 <0>        -0.0998
     10 C9          0.4618   -6.0000   -3.1361 C.ar      1 <0>         0.3205
     11 N2          0.4794   -4.6716   -3.1032 N.ar      1 <0>        -0.5504
     12 N3         -0.3991   -6.9444   -3.6395 N.pl3     1 <0>        -0.4635
     13 C10         0.1291   -8.1728   -3.3539 C.2       1 <0>         0.5289
     14 N4          1.2570   -8.0306   -2.7084 N.2       1 <0>        -0.4396
     15 N5         -0.4482   -9.3925   -3.6985 N.pl3     1 <0>        -0.2369
     16 N6         -1.6518   -9.5834   -4.3943 N.2       1 <0>        -0.2371
     17 C11        -1.8378  -10.8752   -4.5140 C.2       1 <0>         0.0334
     18 C12        -0.7797  -11.5465   -3.9104 C.2       1 <0>         0.0147
     19 N7          0.0636  -10.6697   -3.4228 N.2       1 <0>        -0.1863
     20 C13        -1.6530   -6.6836   -4.3509 C.3       1 <0>         0.0763
     21 N8          3.6230   -6.6260   -1.3408 N.pl3     1 <0>        -0.8137
     22 H1          1.0039    1.9031    0.0027 H         1 <0>         0.0541
     23 H2         -0.5459    1.8868   -0.8726 H         1 <0>         0.0538
     24 H3         -0.5289    1.8773    0.9072 H         1 <0>         0.0529
     25 H4          0.5293   -0.3651    0.8851 H         1 <0>         0.0609
     26 H5         -1.0205   -0.3814    0.0098 H         1 <0>         0.0604
     27 H6          0.1910   -0.1364   -2.1398 H         1 <0>         0.0647
     28 H7          1.7408   -0.1202   -1.2645 H         1 <0>         0.0653
     29 H8          1.2661   -2.3884   -0.3821 H         1 <0>         0.0671
     30 H9         -0.2836   -2.4046   -1.2575 H         1 <0>         0.0655
     31 H10         0.9279   -2.1597   -3.4071 H         1 <0>         0.0929
     32 H11         2.4777   -2.1435   -2.5317 H         1 <0>         0.0950
     33 H12        -2.6790  -11.3438   -5.0031 H         1 <0>         0.2172
     34 H13        -0.6684  -12.6194   -3.8562 H         1 <0>         0.2177
     35 H14        -1.4550   -6.6070   -5.4200 H         1 <0>         0.0803
     36 H15        -2.3510   -7.5006   -4.1682 H         1 <0>         0.1025
     37 H16        -2.0858   -5.7492   -3.9936 H         1 <0>         0.0959
     38 H17         4.3334   -6.1096   -0.9291 H         1 <0>         0.4125
     39 H18         3.6602   -7.5952   -1.3320 H         1 <0>         0.4205
@<TRIPOS>BOND
     1    1    2 1
     2    1   22 1
     3    1   23 1
     4    1   24 1
     5    2    3 1
     6    2   25 1
     7    2   26 1
     8    3    4 1
     9    3   27 1
    10    3   28 1
    11    4    5 1
    12    4   29 1
    13    4   30 1
    14    5    6 1
    15    5   31 1
    16    5   32 1
    17    6   11 ar
    18    6    7 ar
    19    7    8 ar
    20    8    9 ar
    21    8   21 1
    22    9   14 1
    23    9   10 ar
    24   10   11 ar
    25   10   12 1
    26   12   13 1
    27   12   20 1
    28   13   14 2
    29   13   15 1
    30   15   19 1
    31   15   16 1
    32   16   17 2
    33   17   18 1
    34   17   33 1
    35   18   19 2
    36   18   34 1
    37   20   35 1
    38   20   36 1
    39   20   37 1
    40   21   38 1
    41   21   39 1
