@<TRIPOS>MOLECULE
CHEMBL246467
   55    60     0     0     0
SMALL
USER_CHARGES

@<TRIPOS>ATOM
      1 C1          0.0696    2.2778    0.6980 C.2       1 <0>        -0.2205
      2 C2          1.4339    2.5902    0.5356 C.2       1 <0>        -0.1278
      3 C3          2.1187    1.4207    0.6413 C.2       1 <0>         0.0287
      4 O1          1.2297    0.4323    0.8579 O.3       1 <0>        -0.1516
      5 C4         -0.0100    0.9468    0.8927 C.2       1 <0>         0.0051
      6 C5          3.5844    1.2613    0.5362 C.2       1 <0>         0.3585
      7 N1          4.2467    0.1027    0.6369 N.2       1 <0>        -0.4900
      8 C6          5.5397    0.3185    0.4948 C.2       1 <0>         0.3920
      9 C7          6.7254   -0.5346    0.5082 C.2       1 <0>        -0.0176
     10 C8          7.9707    0.0724    0.3168 C.2       1 <0>         0.2902
     11 N2          8.0442    1.3952    0.1290 N.2       1 <0>        -0.5638
     12 C9          6.9794    2.1601    0.1165 C.2       1 <0>         0.6866
     13 N3          5.7224    1.6627    0.2952 N.pl3     1 <0>        -0.3668
     14 N4          4.4459    2.2387    0.3226 N.2       1 <0>        -0.2889
     15 N5          7.1361    3.5135   -0.0822 N.pl3     1 <0>        -0.7994
     16 N6          8.8964   -0.9390    0.3745 N.pl3     1 <0>        -0.4627
     17 C10         8.2189   -2.1015    0.5923 C.2       1 <0>         0.2251
     18 N7          6.9416   -1.8590    0.6703 N.2       1 <0>        -0.4138
     19 C11        10.3470   -0.7954    0.2286 C.3       1 <0>         0.0944
     20 C12        10.9616   -0.4277    1.5806 C.3       1 <0>        -0.0298
     21 N8         12.4162   -0.2838    1.4343 N.4       1 <0>        -0.3792
     22 C13        13.0004   -1.5809    1.0704 C.3       1 <0>        -0.0307
     23 C14        14.4998   -1.4084    0.8057 C.3       1 <0>         0.1034
     24 N9         15.1117   -0.7760    1.9846 N.pl3     1 <0>        -0.6267
     25 C15        14.4886    0.4451    2.5181 C.3       1 <0>         0.1047
     26 C16        12.9898    0.1851    2.7020 C.3       1 <0>        -0.0200
     27 C17        16.2468   -1.3176    2.5781 C.ar      1 <0>         0.3921
     28 C18        16.9411   -2.3372    1.9347 C.ar      1 <0>        -0.2153
     29 C19        18.0686   -2.8666    2.5356 C.ar      1 <0>        -0.0206
     30 C20        18.4660   -2.3564    3.7656 C.ar      1 <0>        -0.1297
     31 C21        17.7289   -1.3433    4.3473 C.ar      1 <0>         0.1660
     32 N10        16.6597   -0.8544    3.7475 N.ar      1 <0>        -0.5218
     33 Cl1        19.8736   -2.9859    4.5630 Cl        1 <0>        -0.0398
     34 H1         -0.7558    2.9739    0.6753 H         1 <0>         0.1624
     35 H2          1.8543    3.5696    0.3609 H         1 <0>         0.1612
     36 H3         -0.9199    0.3869    1.0510 H         1 <0>         0.2172
     37 H4          8.0228    3.8855   -0.2099 H         1 <0>         0.4297
     38 H5          6.3598    4.0950   -0.0946 H         1 <0>         0.4305
     39 H6          8.6729   -3.0770    0.6855 H         1 <0>         0.2323
     40 H7         10.7720   -1.7368   -0.1198 H         1 <0>         0.1222
     41 H8         10.5634   -0.0093   -0.4948 H         1 <0>         0.1184
     42 H9         10.5366    0.5136    1.9289 H         1 <0>         0.1415
     43 H10        10.7452   -1.2138    2.3039 H         1 <0>         0.1403
     44 H11        12.8546   -2.2873    1.8876 H         1 <0>         0.1386
     45 H12        12.5138   -1.9593    0.1715 H         1 <0>         0.1447
     46 H13        14.9561   -2.3834    0.6347 H         1 <0>         0.1303
     47 H14        14.6468   -0.7736   -0.0681 H         1 <0>         0.0969
     48 H15        14.9376    0.6955    3.4793 H         1 <0>         0.1408
     49 H16        14.6345    1.2670    1.8172 H         1 <0>         0.0901
     50 H17        12.4954    1.1079    3.0054 H         1 <0>         0.1438
     51 H18        12.8443   -0.5747    3.4699 H         1 <0>         0.1353
     52 H19        16.6039   -2.7104    0.9790 H         1 <0>         0.1430
     53 H20        18.6274   -3.6590    2.0599 H         1 <0>         0.1520
     54 H21        18.0334   -0.9437    5.3033 H         1 <0>         0.1729
     55 H22        12.6152    0.3876    0.7078 H         1 <0>         0.4258
@<TRIPOS>BOND
     1    1    5 2
     2    1    2 1
     3    1   34 1
     4    2    3 2
     5    2   35 1
     6    3    4 1
     7    3    6 1
     8    4    5 1
     9    5   36 1
    10    6   14 2
    11    6    7 1
    12    7    8 2
    13    8   13 1
    14    8    9 1
    15    9   18 1
    16    9   10 2
    17   10   11 1
    18   10   16 1
    19   11   12 2
    20   12   13 1
    21   12   15 1
    22   13   14 1
    23   15   37 1
    24   15   38 1
    25   16   17 1
    26   16   19 1
    27   17   18 2
    28   17   39 1
    29   19   20 1
    30   19   40 1
    31   19   41 1
    32   20   21 1
    33   20   42 1
    34   20   43 1
    35   21   26 1
    36   21   22 1
    37   21   55 1
    38   22   23 1
    39   22   44 1
    40   22   45 1
    41   23   24 1
    42   23   46 1
    43   23   47 1
    44   24   25 1
    45   24   27 1
    46   25   26 1
    47   25   48 1
    48   25   49 1
    49   26   50 1
    50   26   51 1
    51   27   32 ar
    52   27   28 ar
    53   28   29 ar
    54   28   52 1
    55   29   30 ar
    56   29   53 1
    57   30   31 ar
    58   30   33 1
    59   31   32 ar
    60   31   54 1
