@<TRIPOS>MOLECULE
CHEMBL303198
   31    34     0     0     0
SMALL
USER_CHARGES

@<TRIPOS>ATOM
      1 C1         -0.0162    1.3802    0.0108 C.ar      1 <0>        -0.0937
      2 C2          0.4577    0.7883    1.1681 C.ar      1 <0>        -0.1142
      3 C3          1.6624    0.1161    1.1593 C.ar      1 <0>        -0.0962
      4 C4          2.4035    0.0338   -0.0208 C.ar      1 <0>        -0.0358
      5 C5          1.9195    0.6331   -1.1849 C.ar      1 <0>        -0.0701
      6 C6          0.7133    1.3023   -1.1623 C.ar      1 <0>        -0.1149
      7 C7          3.6952   -0.6844   -0.0375 C.2       1 <0>         0.2374
      8 N1          4.8631   -0.1889   -0.4045 N.2       1 <0>        -0.2434
      9 N2          5.7773   -1.0886   -0.2959 N.2       1 <0>        -0.2329
     10 C8          5.2471   -2.2106    0.1465 C.2       1 <0>         0.1269
     11 N3          3.9049   -1.9782    0.3280 N.pl3     1 <0>        -0.3746
     12 C9          3.0984   -2.9998    0.7978 C.ar      1 <0>         0.0567
     13 C10         1.7376   -2.7942    0.9871 C.ar      1 <0>        -0.1063
     14 C11         0.9422   -3.8198    1.4560 C.ar      1 <0>        -0.0315
     15 C12         1.4932   -5.0616    1.7417 C.ar      1 <0>        -0.0832
     16 C13         2.8383   -5.2850    1.5604 C.ar      1 <0>        -0.0748
     17 C14         3.6611   -4.2554    1.0851 C.ar      1 <0>         0.1567
     18 N4          4.9881   -4.4784    0.9066 N.2       1 <0>        -0.5447
     19 C15         5.7857   -3.5368    0.4552 C.2       1 <0>         0.5154
     20 N5          7.1335   -3.7932    0.2863 N.pl3     1 <0>        -0.7996
     21 Cl1        -0.7574   -3.5553    1.6907 Cl        1 <0>        -0.0490
     22 H1         -0.9621    1.9014    0.0220 H         1 <0>         0.1327
     23 H2         -0.1165    0.8531    2.0805 H         1 <0>         0.1348
     24 H3          2.0314   -0.3451    2.0635 H         1 <0>         0.1259
     25 H4          2.4882    0.5734   -2.1011 H         1 <0>         0.1331
     26 H5          0.3376    1.7661   -2.0623 H         1 <0>         0.1355
     27 H6          1.3019   -1.8307    0.7674 H         1 <0>         0.1563
     28 H7          0.8618   -5.8571    2.1089 H         1 <0>         0.1506
     29 H8          3.2601   -6.2535    1.7851 H         1 <0>         0.1571
     30 H9          7.7234   -3.0943   -0.0369 H         1 <0>         0.4241
     31 H10         7.4894   -4.6720    0.4911 H         1 <0>         0.4217
@<TRIPOS>BOND
     1    1    6 ar
     2    1    2 ar
     3    1   22 1
     4    2    3 ar
     5    2   23 1
     6    3    4 ar
     7    3   24 1
     8    4    5 ar
     9    4    7 1
    10    5    6 ar
    11    5   25 1
    12    6   26 1
    13    7   11 1
    14    7    8 2
    15    8    9 1
    16    9   10 2
    17   10   19 1
    18   10   11 1
    19   11   12 1
    20   12   17 ar
    21   12   13 ar
    22   13   14 ar
    23   13   27 1
    24   14   15 ar
    25   14   21 1
    26   15   16 ar
    27   15   28 1
    28   16   17 ar
    29   16   29 1
    30   17   18 1
    31   18   19 2
    32   19   20 1
    33   20   30 1
    34   20   31 1
