@<TRIPOS>MOLECULE
CHEMBL575197
   52    57     0     0     0
SMALL
USER_CHARGES

@<TRIPOS>ATOM
      1 C1         -0.0167    1.3781    0.0096 C.ar      1 <0>        -0.1246
      2 C2          1.1709    2.0855    0.0021 C.ar      1 <0>        -0.1200
      3 C3          2.3773    1.4107   -0.0130 C.ar      1 <0>        -0.1155
      4 C4          2.3960    0.0285   -0.0201 C.ar      1 <0>        -0.0797
      5 C5          1.2084   -0.6789   -0.0117 C.ar      1 <0>        -0.1116
      6 C6          0.0021   -0.0041    0.0020 C.ar      1 <0>        -0.1188
      7 C7          3.7112   -0.7071   -0.0376 C.3       1 <0>        -0.0945
      8 C8          4.1714   -0.9633    1.3989 C.3       1 <0>         0.1455
      9 N1          5.4498   -1.6784    1.3820 N.pl3     1 <0>        -0.3598
     10 C9          6.5699   -1.2758    2.0075 C.2       1 <0>         0.1356
     11 C10         7.5468   -2.2041    1.7575 C.2       1 <0>        -0.2780
     12 C11         6.9393   -3.2421    0.9087 C.2       1 <0>         0.3234
     13 N2          5.6879   -2.8870    0.7171 N.2       1 <0>        -0.2984
     14 N3          7.7082   -4.2886    0.5151 N.2       1 <0>        -0.4894
     15 C12         8.9642   -4.3953    0.8690 C.2       1 <0>         0.6214
     16 N4          9.6131   -3.4770    1.6577 N.pl3     1 <0>        -0.3286
     17 C13         8.9583   -2.3702    2.1270 C.2       1 <0>         0.3790
     18 N5          9.8065   -1.6697    2.8460 N.2       1 <0>        -0.5328
     19 C14        10.9973   -2.2839    2.8627 C.2       1 <0>         0.2802
     20 N6         10.9235   -3.3913    2.1505 N.2       1 <0>        -0.2442
     21 C15        12.2017   -1.7977    3.5675 C.2       1 <0>         0.0787
     22 C16        13.4159   -2.4090    3.5870 C.2       1 <0>        -0.1597
     23 C17        14.2632   -1.6036    4.3736 C.2       1 <0>        -0.2148
     24 C18        13.5321   -0.5514    4.7909 C.2       1 <0>        -0.0318
     25 O1         12.2889   -0.6689    4.2973 O.3       1 <0>        -0.1575
     26 N7          9.6644   -5.4744    0.4321 N.2       1 <0>        -0.6269
     27 C19         9.0830   -6.3688   -0.3187 C.2       1 <0>         0.4260
     28 O2          7.7897   -6.2226   -0.6604 O.3       1 <0>        -0.6245
     29 C20         9.8597   -7.5659   -0.8033 C.3       1 <0>        -0.0089
     30 C21        11.2726   -7.4916   -0.2843 C.2       1 <0>        -0.0737
     31 C22        11.7864   -7.9892    0.8671 C.2       1 <0>        -0.1708
     32 C23        13.1282   -7.7994    1.1395 C.2       1 <0>        -0.1395
     33 C24        13.8906   -7.1214    0.2472 C.2       1 <0>        -0.2001
     34 S1         12.7058   -6.7322   -1.0303 S.3       1 <0>         0.0280
     35 H1         -0.9591    1.9053    0.0259 H         1 <0>         0.1197
     36 H2          1.1563    3.1654    0.0076 H         1 <0>         0.1209
     37 H3          3.3051    1.9634   -0.0196 H         1 <0>         0.1225
     38 H4          1.2231   -1.7588   -0.0176 H         1 <0>         0.1255
     39 H5         -0.9258   -0.5567    0.0082 H         1 <0>         0.1217
     40 H6          3.5884   -1.6586   -0.5549 H         1 <0>         0.0938
     41 H7          4.4573   -0.1052   -0.5563 H         1 <0>         0.0796
     42 H8          4.2941   -0.0118    1.9163 H         1 <0>         0.0971
     43 H9          3.4252   -1.5652    1.9176 H         1 <0>         0.0880
     44 H10         6.6803   -0.3802    2.6008 H         1 <0>         0.1831
     45 H11        13.6798   -3.3337    3.0953 H         1 <0>         0.1586
     46 H12        15.3021   -1.7937    4.5995 H         1 <0>         0.1526
     47 H13        13.8882    0.2550    5.4149 H         1 <0>         0.2062
     48 H14         9.3864   -8.4778   -0.4392 H         1 <0>         0.1029
     49 H15         9.8729   -7.5735   -1.8932 H         1 <0>         0.0949
     50 H16        11.1566   -8.5256    1.5614 H         1 <0>         0.1228
     51 H17        13.5625   -8.1854    2.0499 H         1 <0>         0.1217
     52 H18        14.9427   -6.8822    0.2948 H         1 <0>         0.1747
@<TRIPOS>BOND
     1    1    6 ar
     2    1    2 ar
     3    1   35 1
     4    2    3 ar
     5    2   36 1
     6    3    4 ar
     7    3   37 1
     8    4    5 ar
     9    4    7 1
    10    5    6 ar
    11    5   38 1
    12    6   39 1
    13    7    8 1
    14    7   40 1
    15    7   41 1
    16    8    9 1
    17    8   42 1
    18    8   43 1
    19    9   13 1
    20    9   10 1
    21   10   11 2
    22   10   44 1
    23   11   17 1
    24   11   12 1
    25   12   13 2
    26   12   14 1
    27   14   15 2
    28   15   16 1
    29   15   26 1
    30   16   20 1
    31   16   17 1
    32   17   18 2
    33   18   19 1
    34   19   20 2
    35   19   21 1
    36   21   25 1
    37   21   22 2
    38   22   23 1
    39   22   45 1
    40   23   24 2
    41   23   46 1
    42   24   25 1
    43   24   47 1
    44   26   27 2
    45   27   28 1
    46   27   29 1
    47   29   30 1
    48   29   48 1
    49   29   49 1
    50   30   34 1
    51   30   31 2
    52   31   32 1
    53   31   50 1
    54   32   33 2
    55   32   51 1
    56   33   34 1
    57   33   52 1
