@<TRIPOS>MOLECULE
CHEMBL136689
   48    52     0     0     0
SMALL
USER_CHARGES

@<TRIPOS>ATOM
      1 C1         -0.0173    1.4248    0.0099 C.3       1 <0>         0.0269
      2 O1          0.0021   -0.0041    0.0020 O.3       1 <0>        -0.3182
      3 C2          0.6258   -0.6184    1.0415 C.ar      1 <0>         0.1243
      4 C3          1.2022    0.1384    2.0513 C.ar      1 <0>        -0.2068
      5 C4          1.8353   -0.4884    3.1070 C.ar      1 <0>        -0.0750
      6 C5          1.8951   -1.8688    3.1577 C.ar      1 <0>        -0.1214
      7 C6          1.3218   -2.6253    2.1523 C.ar      1 <0>        -0.0748
      8 C7          0.6822   -2.0034    1.0976 C.ar      1 <0>        -0.1496
      9 C8          2.5867   -2.5500    4.3104 C.3       1 <0>        -0.0706
     10 C9          1.5771   -2.8076    5.4307 C.3       1 <0>        -0.1307
     11 C10         2.2793   -3.4992    6.6010 C.3       1 <0>         0.1366
     12 N1          1.3125   -3.7459    7.6738 N.pl3     1 <0>        -0.3534
     13 C11         1.0184   -2.8933    8.6954 C.2       1 <0>         0.3698
     14 C12         0.0463   -3.5315    9.4806 C.2       1 <0>        -0.2674
     15 C13        -0.2172   -4.7794    8.8878 C.2       1 <0>         0.1302
     16 N2          0.5272   -4.8958    7.8225 N.2       1 <0>        -0.2626
     17 C14        -0.4546   -2.8267   10.6611 C.2       1 <0>         0.4067
     18 N3         -1.3368   -3.1079   11.5974 N.2       1 <0>        -0.5163
     19 C15        -1.4144   -2.0890   12.4629 C.2       1 <0>         0.3505
     20 N4         -0.5791   -1.1375   12.0907 N.2       1 <0>        -0.3000
     21 N5          0.0588   -1.5837   10.9262 N.pl3     1 <0>        -0.3765
     22 C16         1.0032   -1.0458   10.1009 C.2       1 <0>         0.6913
     23 N6          1.4538   -1.6744    9.0431 N.2       1 <0>        -0.5609
     24 N7          1.5011    0.2031   10.3906 N.pl3     1 <0>        -0.8026
     25 C17        -2.2961   -2.0382   13.6479 C.2       1 <0>         0.0425
     26 C18        -2.3879   -1.0082   14.5304 C.2       1 <0>        -0.1373
     27 C19        -3.3441   -1.3838   15.4947 C.2       1 <0>        -0.2200
     28 C20        -3.7842   -2.6118   15.1567 C.2       1 <0>        -0.0041
     29 O2         -3.1527   -3.0019   14.0378 O.3       1 <0>        -0.1521
     30 H1          1.0053    1.8021    0.0021 H         1 <0>         0.0559
     31 H2         -0.5445    1.7859   -0.8732 H         1 <0>         0.1012
     32 H3         -0.5275    1.7763    0.9067 H         1 <0>         0.0554
     33 H4          1.1564    1.2167    2.0118 H         1 <0>         0.1276
     34 H5          2.2842    0.1003    3.8934 H         1 <0>         0.1242
     35 H6          1.3701   -3.7035    2.1940 H         1 <0>         0.1301
     36 H7          0.2307   -2.5948    0.3148 H         1 <0>         0.1312
     37 H8          3.0056   -3.4983    3.9736 H         1 <0>         0.0778
     38 H9          3.3874   -1.9109    4.6827 H         1 <0>         0.0761
     39 H10         1.1582   -1.8593    5.7675 H         1 <0>         0.0709
     40 H11         0.7764   -3.4467    5.0584 H         1 <0>         0.0759
     41 H12         2.6982   -4.4475    6.2643 H         1 <0>         0.1031
     42 H13         3.0799   -2.8601    6.9733 H         1 <0>         0.1002
     43 H14        -0.9200   -5.5149    9.2505 H         1 <0>         0.2021
     44 H15         1.1805    0.6844   11.1693 H         1 <0>         0.4262
     45 H16         2.1729    0.6026    9.8161 H         1 <0>         0.4302
     46 H17        -1.8346   -0.0812   14.4987 H         1 <0>         0.1599
     47 H18        -3.6636   -0.7985   16.3442 H         1 <0>         0.1594
     48 H19        -4.5248   -3.1853   15.6942 H         1 <0>         0.2142
@<TRIPOS>BOND
     1    1    2 1
     2    1   30 1
     3    1   31 1
     4    1   32 1
     5    2    3 1
     6    3    8 ar
     7    3    4 ar
     8    4    5 ar
     9    4   33 1
    10    5    6 ar
    11    5   34 1
    12    6    7 ar
    13    6    9 1
    14    7    8 ar
    15    7   35 1
    16    8   36 1
    17    9   10 1
    18    9   37 1
    19    9   38 1
    20   10   11 1
    21   10   39 1
    22   10   40 1
    23   11   12 1
    24   11   41 1
    25   11   42 1
    26   12   16 1
    27   12   13 1
    28   13   23 1
    29   13   14 2
    30   14   15 1
    31   14   17 1
    32   15   16 2
    33   15   43 1
    34   17   21 1
    35   17   18 2
    36   18   19 1
    37   19   20 2
    38   19   25 1
    39   20   21 1
    40   21   22 1
    41   22   23 2
    42   22   24 1
    43   24   44 1
    44   24   45 1
    45   25   29 1
    46   25   26 2
    47   26   27 1
    48   26   46 1
    49   27   28 2
    50   27   47 1
    51   28   29 1
    52   28   48 1
