@<TRIPOS>MOLECULE
CHEMBL481737
   43    46     0     0     0
SMALL
USER_CHARGES

@<TRIPOS>ATOM
      1 C1         -0.0173    1.4248    0.0099 C.3       1 <0>         0.0262
      2 O1          0.0021   -0.0041    0.0020 O.3       1 <0>        -0.3175
      3 C2         -1.2003   -0.6375    0.0101 C.ar      1 <0>         0.1290
      4 C3         -2.3746    0.1011    0.0195 C.ar      1 <0>        -0.2069
      5 C4         -3.5956   -0.5451    0.0272 C.ar      1 <0>        -0.0702
      6 C5         -3.6478   -1.9268    0.0260 C.ar      1 <0>        -0.1242
      7 C6         -2.4788   -2.6651    0.0172 C.ar      1 <0>        -0.0707
      8 C7         -1.2554   -2.0237    0.0032 C.ar      1 <0>        -0.1502
      9 C8         -4.9811   -2.6292    0.0350 C.3       1 <0>        -0.0755
     10 C9         -5.4428   -2.8652   -1.4045 C.3       1 <0>         0.0721
     11 O2         -6.7071   -3.5313   -1.3960 O.3       1 <0>        -0.2848
     12 C10        -7.2605   -3.8168   -2.6005 C.2       1 <0>         0.4035
     13 C11        -8.4823   -4.4536   -2.6617 C.2       1 <0>        -0.2606
     14 C12        -9.0292   -4.7350   -3.9261 C.2       1 <0>         0.3757
     15 N1        -10.1478   -5.3170   -4.3303 N.2       1 <0>        -0.5279
     16 C13       -10.1862   -5.3332   -5.6673 C.2       1 <0>         0.3594
     17 N2         -9.0948   -4.7629   -6.1436 N.2       1 <0>        -0.3253
     18 N3         -8.3249   -4.3647   -5.0435 N.pl3     1 <0>        -0.3725
     19 C14        -7.1236   -3.7388   -4.9114 C.2       1 <0>         0.6834
     20 N4         -6.6224   -3.4751   -3.7247 N.2       1 <0>        -0.5999
     21 N5         -6.4253   -3.3715   -6.0372 N.pl3     1 <0>        -0.8021
     22 C15       -11.2793   -5.9016   -6.4838 C.2       1 <0>         0.0361
     23 C16       -12.4099   -6.4866   -6.0070 C.2       1 <0>        -0.1259
     24 C17       -13.1667   -6.8808   -7.1282 C.2       1 <0>        -0.2191
     25 C18       -12.4679   -6.5206   -8.2226 C.2       1 <0>        -0.0078
     26 O3        -11.3308   -5.9246   -7.8296 O.3       1 <0>        -0.1608
     27 H1          1.0053    1.8021    0.0021 H         1 <0>         0.1017
     28 H2         -0.5445    1.7859   -0.8732 H         1 <0>         0.0562
     29 H3         -0.5275    1.7763    0.9067 H         1 <0>         0.0566
     30 H4         -2.3343    1.1803    0.0211 H         1 <0>         0.1295
     31 H5         -4.5101    0.0294    0.0345 H         1 <0>         0.1266
     32 H6         -2.5223   -3.7443    0.0166 H         1 <0>         0.1314
     33 H7         -0.3427   -2.6008   -0.0082 H         1 <0>         0.1325
     34 H8         -4.8840   -3.5865    0.5470 H         1 <0>         0.0857
     35 H9         -5.7136   -2.0117    0.5548 H         1 <0>         0.0848
     36 H10        -5.5399   -1.9079   -1.9165 H         1 <0>         0.0728
     37 H11        -4.7104   -3.4827   -1.9243 H         1 <0>         0.0737
     38 H12        -9.0069   -4.7300   -1.7590 H         1 <0>         0.1715
     39 H13        -6.7894   -3.5588   -6.9165 H         1 <0>         0.4268
     40 H14        -5.5683   -2.9250   -5.9522 H         1 <0>         0.4301
     41 H15       -12.6764   -6.6232   -4.9693 H         1 <0>         0.1636
     42 H16       -14.1253   -7.3781   -7.1132 H         1 <0>         0.1596
     43 H17       -12.7734   -6.6814   -9.2459 H         1 <0>         0.2132
@<TRIPOS>BOND
     1    1    2 1
     2    1   27 1
     3    1   28 1
     4    1   29 1
     5    2    3 1
     6    3    8 ar
     7    3    4 ar
     8    4    5 ar
     9    4   30 1
    10    5    6 ar
    11    5   31 1
    12    6    7 ar
    13    6    9 1
    14    7    8 ar
    15    7   32 1
    16    8   33 1
    17    9   10 1
    18    9   34 1
    19    9   35 1
    20   10   11 1
    21   10   36 1
    22   10   37 1
    23   11   12 1
    24   12   20 1
    25   12   13 2
    26   13   14 1
    27   13   38 1
    28   14   18 1
    29   14   15 2
    30   15   16 1
    31   16   17 2
    32   16   22 1
    33   17   18 1
    34   18   19 1
    35   19   20 2
    36   19   21 1
    37   21   39 1
    38   21   40 1
    39   22   26 1
    40   22   23 2
    41   23   24 1
    42   23   41 1
    43   24   25 2
    44   24   42 1
    45   25   26 1
    46   25   43 1
