@<TRIPOS>MOLECULE
CHEMBL183531
   52    56     0     0     0
SMALL
USER_CHARGES

@<TRIPOS>ATOM
      1 C1         -0.0162    1.3434    0.0094 C.2       1 <0>        -0.2201
      2 C2          1.3252    1.7744   -0.0011 C.2       1 <0>        -0.1205
      3 C3          2.0961    0.6548   -0.0144 C.2       1 <0>         0.0252
      4 O1          1.2797   -0.4166   -0.0124 O.3       1 <0>        -0.1603
      5 C4          0.0021   -0.0041    0.0020 C.2       1 <0>        -0.0001
      6 C5          3.5737    0.6193   -0.0287 C.2       1 <0>         0.3675
      7 N1          4.3730    1.6920   -0.0248 N.2       1 <0>        -0.5288
      8 C6          5.6386    1.3016   -0.0401 C.2       1 <0>         0.3754
      9 C7          6.8656    1.9861   -0.0443 C.2       1 <0>        -0.2977
     10 C8          8.0325    1.2463   -0.0628 C.2       1 <0>         0.4661
     11 N2          7.9812   -0.0912   -0.0761 N.2       1 <0>        -0.5963
     12 C9          6.8369   -0.7384   -0.0722 C.2       1 <0>         0.6908
     13 N3          5.6511   -0.0704   -0.0544 N.pl3     1 <0>        -0.3764
     14 N4          4.3106   -0.4761   -0.0417 N.2       1 <0>        -0.3221
     15 N5          6.8380   -2.1130   -0.0865 N.pl3     1 <0>        -0.7985
     16 N6          9.2607    1.8916   -0.0679 N.pl3     1 <0>        -0.7341
     17 C10        10.4992    1.1092   -0.0875 C.3       1 <0>         0.1114
     18 C11        11.7008    2.0563   -0.0893 C.3       1 <0>         0.0095
     19 H1         11.7396    2.6076    0.8502 H         1 <0>         0.1503
     20 C12        13.0035    1.2512   -0.2798 C.3       1 <0>        -0.1301
     21 C13        13.2749    1.3807   -1.8018 C.3       1 <0>        -0.1416
     22 C14        12.7853    2.8227   -2.0854 C.3       1 <0>        -0.0117
     23 N7         11.5958    2.9976   -1.2193 N.4       1 <0>        -0.3952
     24 C15        11.5479    4.3754   -0.7122 C.3       1 <0>         0.0432
     25 C16        11.3174    5.3252   -1.8593 C.ar      1 <0>        -0.0992
     26 C17        12.3862    5.8663   -2.5586 C.ar      1 <0>        -0.1492
     27 C18        12.1372    6.7336   -3.6046 C.ar      1 <0>         0.1371
     28 N8         10.9013    7.0490   -3.9405 N.ar      1 <0>        -0.4515
     29 C19         9.8603    6.5540   -3.2982 C.ar      1 <0>         0.1848
     30 C20        10.0328    5.6741   -2.2439 C.ar      1 <0>        -0.1371
     31 Cl1         8.2566    7.0057   -3.7858 Cl        1 <0>         0.0042
     32 H2         -0.8931    1.9736    0.0252 H         1 <0>         0.1615
     33 H3          1.6736    2.7966    0.0008 H         1 <0>         0.1629
     34 H4         -0.8667   -0.6456    0.0069 H         1 <0>         0.2157
     35 H5          6.8960    3.0656   -0.0338 H         1 <0>         0.1585
     36 H6          7.6784   -2.5973   -0.0992 H         1 <0>         0.4303
     37 H7          5.9984   -2.5988   -0.0837 H         1 <0>         0.4301
     38 H8          9.2994    2.8608   -0.0586 H         1 <0>         0.4068
     39 H9         10.5402    0.4719    0.7958 H         1 <0>         0.1162
     40 H10        10.5234    0.4897   -0.9840 H         1 <0>         0.0963
     41 H11        13.8171    1.6928    0.2957 H         1 <0>         0.1086
     42 H12        12.8557    0.2076   -0.0021 H         1 <0>         0.1199
     43 H13        14.3383    1.2796   -2.0188 H         1 <0>         0.1224
     44 H14        12.6920    0.6524   -2.3657 H         1 <0>         0.1008
     45 H15        13.5568    3.5448   -1.8184 H         1 <0>         0.1354
     46 H16        12.5102    2.9305   -3.1346 H         1 <0>         0.1341
     47 H17        10.7341    4.4699    0.0068 H         1 <0>         0.1410
     48 H18        12.4928    4.6164   -0.2251 H         1 <0>         0.1502
     49 H19        13.4007    5.6128   -2.2884 H         1 <0>         0.1533
     50 H20        12.9644    7.1588   -4.1536 H         1 <0>         0.1804
     51 H21         9.1771    5.2683   -1.7247 H         1 <0>         0.1556
     52 H22        10.7586    2.8021   -1.7474 H         1 <0>         0.4250
@<TRIPOS>BOND
     1    1    5 2
     2    1    2 1
     3    1   32 1
     4    2    3 2
     5    2   33 1
     6    3    4 1
     7    3    6 1
     8    4    5 1
     9    5   34 1
    10    6   14 2
    11    6    7 1
    12    7    8 2
    13    8   13 1
    14    8    9 1
    15    9   10 2
    16    9   35 1
    17   10   11 1
    18   10   16 1
    19   11   12 2
    20   12   13 1
    21   12   15 1
    22   13   14 1
    23   15   36 1
    24   15   37 1
    25   16   17 1
    26   16   38 1
    27   17   18 1
    28   17   39 1
    29   17   40 1
    30   18   19 1
    31   18   23 1
    32   18   20 1
    33   20   21 1
    34   20   41 1
    35   20   42 1
    36   21   22 1
    37   21   43 1
    38   21   44 1
    39   22   23 1
    40   22   45 1
    41   22   46 1
    42   23   24 1
    43   23   52 1
    44   24   25 1
    45   24   47 1
    46   24   48 1
    47   25   30 ar
    48   25   26 ar
    49   26   27 ar
    50   26   49 1
    51   27   28 ar
    52   27   50 1
    53   28   29 ar
    54   29   30 ar
    55   29   31 1
    56   30   51 1
