@<TRIPOS>MOLECULE
CHEMBL354419
   46    50     0     0     0
SMALL
USER_CHARGES

@<TRIPOS>ATOM
      1 C1         -0.0167    1.3777   -0.0090 C.ar      1 <0>        -0.0736
      2 C2          1.1668    2.0885    0.0019 C.ar      1 <0>        -0.1418
      3 C3          2.3866    1.4125    0.0053 C.ar      1 <0>        -0.0104
      4 C4          2.4064    0.0192   -0.0022 C.ar      1 <0>        -0.1486
      5 C5          1.2130   -0.6867   -0.0131 C.ar      1 <0>         0.2092
      6 C6          0.0020   -0.0040   -0.0166 C.ar      1 <0>        -0.1760
      7 N1          1.2276   -2.0836   -0.0212 N.pl3     1 <0>        -0.6324
      8 C7          2.4968   -2.8124   -0.1420 C.3       1 <0>         0.1262
      9 C8          2.6517   -3.7386    1.0710 C.3       1 <0>        -0.1880
     10 C9          1.3707   -4.5261    1.2380 C.2       1 <0>         0.3611
     11 O1          1.3908   -5.7312    1.3125 O.2       1 <0>        -0.4527
     12 C10         0.0639   -3.7670    1.3100 C.3       1 <0>        -0.1883
     13 C11        -0.0255   -2.8401    0.0971 C.3       1 <0>         0.1275
     14 C12         3.6581    2.1738    0.0165 C.2       1 <0>         0.2510
     15 C13         3.6347    3.5568    0.0293 C.2       1 <0>        -0.2135
     16 C14         4.8600    4.2475    0.0402 C.2       1 <0>         0.3530
     17 N2          5.1858    5.5305    0.0533 N.2       1 <0>        -0.5234
     18 C15         6.5168    5.6546    0.0593 C.2       1 <0>         0.3541
     19 N3          7.0688    4.4544    0.0501 N.2       1 <0>        -0.3216
     20 N4          6.0239    3.5216    0.0376 N.pl3     1 <0>        -0.3616
     21 C16         5.9768    2.1605    0.0244 C.2       1 <0>         0.6532
     22 N5          4.8302    1.5201    0.0199 N.2       1 <0>        -0.5492
     23 N6          7.1508    1.4440    0.0216 N.pl3     1 <0>        -0.8079
     24 C17         7.2556    6.9347    0.0731 C.2       1 <0>         0.0361
     25 C18         6.7009    8.1756    0.0877 C.2       1 <0>        -0.1265
     26 C19         7.7671    9.0967    0.0971 C.2       1 <0>        -0.2190
     27 C20         8.9081    8.3797    0.0878 C.2       1 <0>        -0.0076
     28 O2          8.5954    7.0741    0.0792 O.3       1 <0>        -0.1607
     29 H1         -0.9602    1.9033   -0.0072 H         1 <0>         0.1303
     30 H2          1.1481    3.1683    0.0073 H         1 <0>         0.1298
     31 H3          3.3484   -0.5091    0.0001 H         1 <0>         0.1384
     32 H4         -0.9268   -0.5550   -0.0247 H         1 <0>         0.1278
     33 H5          2.4919   -3.4056   -1.0564 H         1 <0>         0.0715
     34 H6          3.3243   -2.1034   -0.1684 H         1 <0>         0.0994
     35 H7          3.4842   -4.4227    0.9064 H         1 <0>         0.0995
     36 H8          2.8362   -3.1439    1.9656 H         1 <0>         0.1034
     37 H9         -0.7695   -4.4693    1.2993 H         1 <0>         0.1003
     38 H10         0.0335   -3.1746    2.2245 H         1 <0>         0.1033
     39 H11        -0.8584   -2.1493    0.2282 H         1 <0>         0.0979
     40 H12        -0.1797   -3.4350   -0.8031 H         1 <0>         0.0712
     41 H13         2.6976    4.0936    0.0306 H         1 <0>         0.1687
     42 H14         8.0024    1.9083    0.0289 H         1 <0>         0.4244
     43 H15         7.1272    0.4743    0.0122 H         1 <0>         0.4291
     44 H16         5.6467    8.4103    0.0911 H         1 <0>         0.1633
     45 H17         7.6854   10.1735    0.1094 H         1 <0>         0.1597
     46 H18         9.9081    8.7876    0.0911 H         1 <0>         0.2134
@<TRIPOS>BOND
     1    1    6 ar
     2    1    2 ar
     3    1   29 1
     4    2    3 ar
     5    2   30 1
     6    3    4 ar
     7    3   14 1
     8    4    5 ar
     9    4   31 1
    10    5    6 ar
    11    5    7 1
    12    6   32 1
    13    7   13 1
    14    7    8 1
    15    8    9 1
    16    8   33 1
    17    8   34 1
    18    9   10 1
    19    9   35 1
    20    9   36 1
    21   10   11 2
    22   10   12 1
    23   12   13 1
    24   12   37 1
    25   12   38 1
    26   13   39 1
    27   13   40 1
    28   14   22 1
    29   14   15 2
    30   15   16 1
    31   15   41 1
    32   16   20 1
    33   16   17 2
    34   17   18 1
    35   18   19 2
    36   18   24 1
    37   19   20 1
    38   20   21 1
    39   21   22 2
    40   21   23 1
    41   23   42 1
    42   23   43 1
    43   24   28 1
    44   24   25 2
    45   25   26 1
    46   25   44 1
    47   26   27 2
    48   26   45 1
    49   27   28 1
    50   27   46 1
