@<TRIPOS>MOLECULE
CHEMBL255860
   45    48     0     0     0
SMALL
USER_CHARGES

@<TRIPOS>ATOM
      1 C1         -0.0175    1.5029    0.0166 C.3       1 <0>        -0.0790
      2 C2          0.0028   -0.0040    0.0070 C.2       1 <0>         0.0210
      3 C3         -1.0824   -0.8047    0.0059 C.2       1 <0>        -0.2243
      4 C4         -0.6155   -2.1325   -0.0051 C.2       1 <0>        -0.1110
      5 C5          0.7437   -2.0698   -0.0102 C.2       1 <0>         0.0071
      6 O1          1.1032   -0.7711   -0.0078 O.3       1 <0>        -0.1510
      7 C6          1.6640   -3.2234   -0.0215 C.ar      1 <0>         0.4455
      8 N1          2.9730   -3.0056   -0.0200 N.ar      1 <0>        -0.5139
      9 C7          3.8329   -4.0240   -0.0299 C.ar      1 <0>         0.2860
     10 C8          3.3376   -5.3300   -0.0420 C.ar      1 <0>        -0.2186
     11 C9          1.9566   -5.5156   -0.0432 C.ar      1 <0>         0.4246
     12 N2          1.1603   -4.4527   -0.0274 N.ar      1 <0>        -0.4932
     13 N3          1.4187   -6.7984   -0.0550 N.am      1 <0>        -0.6502
     14 C10         0.0859   -6.9712    0.0470 C.2       1 <0>         0.5057
     15 O2         -0.6514   -6.0084    0.0563 O.2       1 <0>        -0.4324
     16 C11        -0.4881   -8.3608    0.1494 C.3       1 <0>         0.0441
     17 O3         -1.9116   -8.2822    0.2466 O.3       1 <0>        -0.2852
     18 C12        -2.5890   -9.4562    0.3468 C.ar      1 <0>         0.1289
     19 C13        -1.8951  -10.6590    0.3570 C.ar      1 <0>        -0.1818
     20 C14        -2.5785  -11.8564    0.4591 C.ar      1 <0>        -0.0769
     21 C15        -3.9554  -11.8645    0.5512 C.ar      1 <0>        -0.1051
     22 C16        -4.6619  -10.6602    0.5417 C.ar      1 <0>         0.0159
     23 C17        -3.9699   -9.4520    0.4443 C.ar      1 <0>        -0.0986
     24 C18        -6.0907  -10.6645    0.6371 C.1       1 <0>         0.2502
     25 N4         -7.2242  -10.6679    0.7127 N.1       1 <0>        -0.4021
     26 C19         5.2902   -3.7748   -0.0287 C.2       1 <0>         0.1187
     27 N5          6.2921   -4.6428   -0.0432 N.2       1 <0>        -0.4736
     28 C20         7.5397   -4.2436   -0.0394 C.2       1 <0>         0.0208
     29 C21         7.8256   -2.9122   -0.0202 C.2       1 <0>        -0.1928
     30 S1          6.1757   -2.2215   -0.0151 S.3       1 <0>         0.0980
     31 H1          1.0052    1.8800    0.0101 H         1 <0>         0.0794
     32 H2         -0.5439    1.8648   -0.8666 H         1 <0>         0.0910
     33 H3         -0.5284    1.8536    0.9133 H         1 <0>         0.0910
     34 H4         -2.1146   -0.4872    0.0127 H         1 <0>         0.1570
     35 H5         -1.2194   -3.0279   -0.0084 H         1 <0>         0.1664
     36 H6          4.0091   -6.1758   -0.0506 H         1 <0>         0.1657
     37 H7          2.0027   -7.5685   -0.1367 H         1 <0>         0.4268
     38 H8         -0.2155   -8.9328   -0.7375 H         1 <0>         0.1029
     39 H9         -0.0900   -8.8539    1.0362 H         1 <0>         0.1033
     40 H10        -0.8176  -10.6590    0.2846 H         1 <0>         0.1367
     41 H11        -2.0330  -12.7885    0.4665 H         1 <0>         0.1399
     42 H12        -4.4861  -12.8018    0.6301 H         1 <0>         0.1373
     43 H13        -4.5104   -8.5169    0.4406 H         1 <0>         0.1447
     44 H14         8.3400   -4.9688   -0.0511 H         1 <0>         0.1760
     45 H15         8.7828   -2.4121   -0.0138 H         1 <0>         0.2054
@<TRIPOS>BOND
     1    1    2 1
     2    1   31 1
     3    1   32 1
     4    1   33 1
     5    2    6 1
     6    2    3 2
     7    3    4 1
     8    3   34 1
     9    4    5 2
    10    4   35 1
    11    5    6 1
    12    5    7 1
    13    7   12 ar
    14    7    8 ar
    15    8    9 ar
    16    9   10 ar
    17    9   26 1
    18   10   11 ar
    19   10   36 1
    20   11   12 ar
    21   11   13 1
    22   13   14 am
    23   13   37 1
    24   14   15 2
    25   14   16 1
    26   16   17 1
    27   16   38 1
    28   16   39 1
    29   17   18 1
    30   18   23 ar
    31   18   19 ar
    32   19   20 ar
    33   19   40 1
    34   20   21 ar
    35   20   41 1
    36   21   22 ar
    37   21   42 1
    38   22   23 ar
    39   22   24 1
    40   23   43 1
    41   24   25 3
    42   26   30 1
    43   26   27 2
    44   27   28 1
    45   28   29 2
    46   28   44 1
    47   29   30 1
    48   29   45 1
