@<TRIPOS>MOLECULE
CHEMBL1095822
   45    49     0     0     0
SMALL
USER_CHARGES

@<TRIPOS>ATOM
      1 C1         -0.0129    1.3858    0.0206 C.ar      1 <0>        -0.0938
      2 C2          1.1706    2.1023    0.0295 C.ar      1 <0>        -0.1347
      3 C3          2.3812    1.4403    0.0197 C.ar      1 <0>        -0.0668
      4 C4          2.4101    0.0459    0.0006 C.ar      1 <0>        -0.0796
      5 C5          1.2136   -0.6707   -0.0082 C.ar      1 <0>        -0.0585
      6 C6          0.0093    0.0027    0.0017 C.ar      1 <0>        -0.1275
      7 C7          3.7063   -0.6708   -0.0105 C.ar      1 <0>         0.3375
      8 C8          3.8546   -1.8945    0.6597 C.ar      1 <0>        -0.3400
      9 C9          5.1071   -2.5380    0.6201 C.ar      1 <0>         0.3020
     10 N1          6.0976   -1.9653   -0.0475 N.ar      1 <0>        -0.5621
     11 C10         5.9174   -0.8049   -0.6699 C.ar      1 <0>         0.6000
     12 N2          4.7559   -0.1700   -0.6623 N.ar      1 <0>        -0.5692
     13 N3          6.9770   -0.2450   -1.3530 N.pl3     1 <0>        -0.8060
     14 C11         5.0116   -3.8012    1.3951 C.ar      1 <0>         0.0172
     15 C12         5.9400   -4.7914    1.6682 C.ar      1 <0>        -0.1488
     16 C13         5.5750   -5.8959    2.4403 C.ar      1 <0>         0.2495
     17 C14         4.2820   -6.0058    2.9366 C.ar      1 <0>        -0.1970
     18 C15         3.3492   -5.0222    2.6683 C.ar      1 <0>         0.0076
     19 C16         3.7034   -3.9175    1.9002 C.ar      1 <0>        -0.2138
     20 C17         2.9386   -2.7290    1.4564 C.2       1 <0>         0.4684
     21 O1          1.7734   -2.4874    1.7037 O.2       1 <0>        -0.4242
     22 N4          6.5081   -6.8890    2.7129 N.pl3     1 <0>        -0.6206
     23 C18         6.1864   -8.0023    3.6198 C.3       1 <0>         0.0808
     24 C19         6.5432   -9.3171    2.9169 C.3       1 <0>         0.0450
     25 O2          7.8922   -9.2493    2.4484 O.3       1 <0>        -0.3773
     26 C20         8.1228   -8.2291    1.4739 C.3       1 <0>         0.0459
     27 C21         7.8450   -6.8617    2.0985 C.3       1 <0>         0.0793
     28 H1         -0.9580    1.9084    0.0330 H         1 <0>         0.1260
     29 H2          1.1468    3.1819    0.0439 H         1 <0>         0.1276
     30 H3          3.3044    2.0006    0.0263 H         1 <0>         0.1287
     31 H4          1.2297   -1.7505   -0.0233 H         1 <0>         0.1360
     32 H5         -0.9179   -0.5512   -0.0048 H         1 <0>         0.1286
     33 H6          7.8347   -0.6977   -1.3731 H         1 <0>         0.4189
     34 H7          6.8644    0.6013   -1.8133 H         1 <0>         0.4204
     35 H8          6.9460   -4.7097    1.2838 H         1 <0>         0.1385
     36 H9          4.0051   -6.8623    3.5333 H         1 <0>         0.1384
     37 H10         2.3448   -5.1109    3.0553 H         1 <0>         0.1401
     38 H11         6.7666   -7.9076    4.5377 H         1 <0>         0.0784
     39 H12         5.1221   -7.9887    3.8546 H         1 <0>         0.0978
     40 H13         6.4429  -10.1444    3.6194 H         1 <0>         0.1086
     41 H14         5.8719   -9.4722    2.0723 H         1 <0>         0.0582
     42 H15         9.1589   -8.2737    1.1383 H         1 <0>         0.1089
     43 H16         7.4572   -8.3803    0.6240 H         1 <0>         0.0576
     44 H17         7.8784   -6.0930    1.3264 H         1 <0>         0.0966
     45 H18         8.5950   -6.6501    2.8606 H         1 <0>         0.0778
@<TRIPOS>BOND
     1    1    6 ar
     2    1    2 ar
     3    1   28 1
     4    2    3 ar
     5    2   29 1
     6    3    4 ar
     7    3   30 1
     8    4    5 ar
     9    4    7 1
    10    5    6 ar
    11    5   31 1
    12    6   32 1
    13    7   12 ar
    14    7    8 ar
    15    8   20 1
    16    8    9 ar
    17    9   10 ar
    18    9   14 1
    19   10   11 ar
    20   11   12 ar
    21   11   13 1
    22   13   33 1
    23   13   34 1
    24   14   19 ar
    25   14   15 ar
    26   15   16 ar
    27   15   35 1
    28   16   17 ar
    29   16   22 1
    30   17   18 ar
    31   17   36 1
    32   18   19 ar
    33   18   37 1
    34   19   20 1
    35   20   21 2
    36   22   27 1
    37   22   23 1
    38   23   24 1
    39   23   38 1
    40   23   39 1
    41   24   25 1
    42   24   40 1
    43   24   41 1
    44   25   26 1
    45   26   27 1
    46   26   42 1
    47   26   43 1
    48   27   44 1
    49   27   45 1
