@<TRIPOS>MOLECULE
CHEMBL482283
   49    54     0     0     0
SMALL
USER_CHARGES

@<TRIPOS>ATOM
      1 C1         -0.0167    1.3785    0.0096 C.ar      1 <0>        -0.1659
      2 C2          1.1816    2.0721    0.0019 C.ar      1 <0>        -0.0662
      3 C3          2.3713    1.3395   -0.0134 C.ar      1 <0>        -0.0959
      4 C4          2.3056   -0.0523   -0.0202 C.ar      1 <0>         0.1114
      5 N1          1.1415   -0.6686   -0.0124 N.ar      1 <0>        -0.4799
      6 C5          0.0021   -0.0041    0.0020 C.ar      1 <0>         0.1011
      7 C6          3.6834    2.0325   -0.0227 C.ar      1 <0>        -0.0949
      8 C7          4.8734    1.2998   -0.0439 C.ar      1 <0>        -0.0621
      9 C8          6.0713    1.9931   -0.0523 C.ar      1 <0>        -0.1557
     10 C9          6.0526    3.3761   -0.0396 C.ar      1 <0>         0.1323
     11 N2          4.9134    4.0404   -0.0196 N.ar      1 <0>        -0.4736
     12 C10         3.7490    3.4239   -0.0163 C.ar      1 <0>         0.1175
     13 C11         7.3541    4.1356   -0.0481 C.3       1 <0>        -0.0848
     14 C12         7.3637    5.1179   -1.2211 C.3       1 <0>         0.1480
     15 N3          8.6290    5.8563   -1.2295 N.pl3     1 <0>        -0.3559
     16 C13         8.8721    7.0315   -0.5839 C.2       1 <0>         0.3725
     17 C14        10.2037    7.3732   -0.8647 C.2       1 <0>        -0.2676
     18 C15        10.7291    6.3643   -1.6917 C.2       1 <0>         0.1318
     19 N4          9.7986    5.4728   -1.8973 N.2       1 <0>        -0.2642
     20 C16        10.7322    8.6096   -0.2873 C.2       1 <0>         0.4064
     21 N5         11.8953    9.2254   -0.3340 N.2       1 <0>        -0.5163
     22 C17        11.8383   10.3499    0.3908 C.2       1 <0>         0.3501
     23 N6         10.6325   10.4697    0.9137 N.2       1 <0>        -0.2997
     24 N7          9.8906    9.3583    0.4938 N.pl3     1 <0>        -0.3762
     25 C18         8.6092    8.9413    0.7094 C.2       1 <0>         0.6916
     26 N8          8.1330    7.8348    0.1938 N.2       1 <0>        -0.5585
     27 N9          7.7864    9.7120    1.4973 N.pl3     1 <0>        -0.8020
     28 C19        12.9501   11.3059    0.5760 C.2       1 <0>         0.0427
     29 C20        12.9064   12.4472    1.3133 C.2       1 <0>        -0.1374
     30 C21        14.1786   13.0444    1.2126 C.2       1 <0>        -0.2200
     31 C22        14.9282   12.2463    0.4270 C.2       1 <0>        -0.0044
     32 O1         14.1845   11.1945    0.0484 O.3       1 <0>        -0.1521
     33 H1         -0.9558    1.9115    0.0259 H         1 <0>         0.1409
     34 H2          1.1963    3.1520    0.0072 H         1 <0>         0.1389
     35 H3          3.2174   -0.6310   -0.0324 H         1 <0>         0.1573
     36 H4         -0.9307   -0.5484    0.0080 H         1 <0>         0.1596
     37 H5          4.8586    0.2199   -0.0531 H         1 <0>         0.1411
     38 H6          7.0104    1.4601   -0.0682 H         1 <0>         0.1418
     39 H7          2.8372    4.0026   -0.0041 H         1 <0>         0.1595
     40 H8          7.4601    4.6854    0.8871 H         1 <0>         0.0918
     41 H9          8.1828    3.4354   -0.1538 H         1 <0>         0.0920
     42 H10         7.2577    4.5681   -2.1563 H         1 <0>         0.1007
     43 H11         6.5351    5.8181   -1.1154 H         1 <0>         0.1115
     44 H12        11.7338    6.3308   -2.0864 H         1 <0>         0.2025
     45 H13         8.1202   10.5347    1.8878 H         1 <0>         0.4261
     46 H14         6.8723    9.4327    1.6624 H         1 <0>         0.4308
     47 H15        12.0600   12.8237    1.8685 H         1 <0>         0.1599
     48 H16        14.4934   13.9673    1.6768 H         1 <0>         0.1593
     49 H17        15.9576   12.4216    0.1511 H         1 <0>         0.2141
@<TRIPOS>BOND
     1    1    6 ar
     2    1    2 ar
     3    1   33 1
     4    2    3 ar
     5    2   34 1
     6    3    4 ar
     7    3    7 1
     8    4    5 ar
     9    4   35 1
    10    5    6 ar
    11    6   36 1
    12    7   12 ar
    13    7    8 ar
    14    8    9 ar
    15    8   37 1
    16    9   10 ar
    17    9   38 1
    18   10   11 ar
    19   10   13 1
    20   11   12 ar
    21   12   39 1
    22   13   14 1
    23   13   40 1
    24   13   41 1
    25   14   15 1
    26   14   42 1
    27   14   43 1
    28   15   19 1
    29   15   16 1
    30   16   26 1
    31   16   17 2
    32   17   18 1
    33   17   20 1
    34   18   19 2
    35   18   44 1
    36   20   24 1
    37   20   21 2
    38   21   22 1
    39   22   23 2
    40   22   28 1
    41   23   24 1
    42   24   25 1
    43   25   26 2
    44   25   27 1
    45   27   45 1
    46   27   46 1
    47   28   32 1
    48   28   29 2
    49   29   30 1
    50   29   47 1
    51   30   31 2
    52   30   48 1
    53   31   32 1
    54   31   49 1
