@<TRIPOS>MOLECULE
CHEMBL256382
   46    49     0     0     0
SMALL
USER_CHARGES

@<TRIPOS>ATOM
      1 C1        -10.6354   -7.0415    4.8034 C.3       1 <0>         0.0265
      2 O1        -10.7827   -5.6806    4.3931 O.3       1 <0>        -0.3176
      3 C2         -9.8515   -5.1915    3.5325 C.ar      1 <0>         0.1317
      4 C3         -8.8205   -6.0063    3.0877 C.ar      1 <0>        -0.2066
      5 C4         -7.8754   -5.5068    2.2126 C.ar      1 <0>        -0.0612
      6 C5         -7.9562   -4.1959    1.7804 C.ar      1 <0>        -0.1127
      7 C6         -8.9824   -3.3817    2.2227 C.ar      1 <0>        -0.0619
      8 C7         -9.9335   -3.8782    3.0929 C.ar      1 <0>        -0.1500
      9 C8         -6.9236   -3.6535    0.8262 C.3       1 <0>        -0.0922
     10 C9         -7.3793   -3.8845   -0.5916 C.2       1 <0>         0.5040
     11 O2         -8.4382   -4.4353   -0.8060 O.2       1 <0>        -0.4523
     12 N1         -6.6100   -3.4790   -1.6212 N.am      1 <0>        -0.6562
     13 C10        -6.9782   -3.7851   -2.9273 C.ar      1 <0>         0.4161
     14 C11        -6.1380   -3.4630   -3.9914 C.ar      1 <0>        -0.2140
     15 C12        -6.5504   -3.7901   -5.2847 C.ar      1 <0>         0.2753
     16 N2         -7.7263   -4.3954   -5.4549 N.ar      1 <0>        -0.4889
     17 C13        -8.4956   -4.6844   -4.4173 C.ar      1 <0>         0.4063
     18 N3         -8.1326   -4.3932   -3.1758 N.ar      1 <0>        -0.4947
     19 C14        -9.7976   -5.3582   -4.6495 C.ar      1 <0>         0.1632
     20 C15       -10.6198   -5.6631   -3.5676 C.ar      1 <0>        -0.1117
     21 C16       -11.8319   -6.2914   -3.7997 C.ar      1 <0>        -0.0850
     22 C17       -12.1809   -6.5936   -5.1078 C.ar      1 <0>        -0.1519
     23 C18       -11.3152   -6.2616   -6.1347 C.ar      1 <0>         0.0947
     24 N4        -10.1706   -5.6598   -5.8860 N.ar      1 <0>        -0.4404
     25 C19        -5.6963   -3.4697   -6.4481 C.2       1 <0>         0.1218
     26 N5         -4.5079   -2.8833   -6.4831 N.2       1 <0>        -0.4768
     27 C20        -3.8842   -2.6744   -7.6160 C.2       1 <0>         0.0207
     28 C21        -4.4585   -3.0633   -8.7880 C.2       1 <0>        -0.1978
     29 S1         -5.9846   -3.7758   -8.1860 S.3       1 <0>         0.1026
     30 H1        -11.4422   -7.3040    5.4877 H         1 <0>         0.1012
     31 H2        -10.6749   -7.6910    3.9290 H         1 <0>         0.0563
     32 H3         -9.6767   -7.1675    5.3066 H         1 <0>         0.0560
     33 H4         -8.7566   -7.0301    3.4255 H         1 <0>         0.1285
     34 H5         -7.0727   -6.1407    1.8660 H         1 <0>         0.1229
     35 H6         -9.0431   -2.3580    1.8839 H         1 <0>         0.1279
     36 H7        -10.7374   -3.2431    3.4346 H         1 <0>         0.1317
     37 H8         -6.7966   -2.5846    0.9974 H         1 <0>         0.1086
     38 H9         -5.9741   -4.1631    0.9902 H         1 <0>         0.1081
     39 H10        -5.7996   -2.9736   -1.4516 H         1 <0>         0.4245
     40 H11        -5.1913   -2.9721   -3.8201 H         1 <0>         0.1630
     41 H12       -10.3162   -5.4135   -2.5617 H         1 <0>         0.1574
     42 H13       -12.4904   -6.5407   -2.9808 H         1 <0>         0.1412
     43 H14       -13.1190   -7.0837   -5.3225 H         1 <0>         0.1400
     44 H15       -11.5836   -6.4954   -7.1543 H         1 <0>         0.1630
     45 H16        -2.9167   -2.1945   -7.6206 H         1 <0>         0.1746
     46 H17        -4.0922   -2.9711   -9.7998 H         1 <0>         0.2043
@<TRIPOS>BOND
     1    1    2 1
     2    1   30 1
     3    1   31 1
     4    1   32 1
     5    2    3 1
     6    3    8 ar
     7    3    4 ar
     8    4    5 ar
     9    4   33 1
    10    5    6 ar
    11    5   34 1
    12    6    7 ar
    13    6    9 1
    14    7    8 ar
    15    7   35 1
    16    8   36 1
    17    9   10 1
    18    9   37 1
    19    9   38 1
    20   10   11 2
    21   10   12 am
    22   12   13 1
    23   12   39 1
    24   13   18 ar
    25   13   14 ar
    26   14   15 ar
    27   14   40 1
    28   15   16 ar
    29   15   25 1
    30   16   17 ar
    31   17   18 ar
    32   17   19 1
    33   19   24 ar
    34   19   20 ar
    35   20   21 ar
    36   20   41 1
    37   21   22 ar
    38   21   42 1
    39   22   23 ar
    40   22   43 1
    41   23   24 ar
    42   23   44 1
    43   25   29 1
    44   25   26 2
    45   26   27 1
    46   27   28 2
    47   27   45 1
    48   28   29 1
    49   28   46 1
