@<TRIPOS>MOLECULE
CHEMBL407049
   41    44     0     0     0
SMALL
USER_CHARGES

@<TRIPOS>ATOM
      1 C1         -0.0167    1.3781    0.0096 C.ar      1 <0>        -0.1238
      2 C2          1.1709    2.0855    0.0021 C.ar      1 <0>        -0.1185
      3 C3          2.3773    1.4107   -0.0130 C.ar      1 <0>        -0.1166
      4 C4          2.3960    0.0285   -0.0201 C.ar      1 <0>        -0.0831
      5 C5          1.2084   -0.6789   -0.0117 C.ar      1 <0>        -0.1166
      6 C6          0.0021   -0.0041    0.0020 C.ar      1 <0>        -0.1182
      7 C7          3.7112   -0.7071   -0.0376 C.3       1 <0>        -0.0762
      8 C8          4.1714   -0.9633    1.3989 C.3       1 <0>        -0.1293
      9 C9          5.5066   -1.7102    1.3812 C.3       1 <0>         0.1419
     10 N1          5.9472   -1.9554    2.7567 N.pl3     1 <0>        -0.3811
     11 C10         6.7226   -1.1224    3.5084 C.ar      1 <0>         0.3936
     12 C11         6.8957   -1.7536    4.7568 C.ar      1 <0>        -0.3155
     13 C12         6.1959   -2.9768    4.7021 C.2       1 <0>         0.1182
     14 N2          5.6398   -3.0830    3.5286 N.2       1 <0>        -0.2473
     15 C13         7.6701   -1.0965    5.7390 C.ar      1 <0>         0.3838
     16 N3          8.2004    0.0885    5.4393 N.ar      1 <0>        -0.5701
     17 C14         8.0094    0.6427    4.2497 C.ar      1 <0>         0.6183
     18 N4          7.2918    0.0626    3.3017 N.ar      1 <0>        -0.5921
     19 N5          8.5829    1.8755    3.9900 N.pl3     1 <0>        -0.8111
     20 C15         7.8855   -1.7062    7.0616 C.2       1 <0>        -0.0024
     21 C16         9.0184   -1.6085    7.8129 C.2       1 <0>        -0.1295
     22 C17         8.7860   -2.3387    8.9923 C.2       1 <0>        -0.2205
     23 C18         7.5369   -2.8421    8.9070 C.2       1 <0>        -0.0086
     24 O1          6.9946   -2.4535    7.7433 O.3       1 <0>        -0.1610
     25 H1         -0.9591    1.9053    0.0259 H         1 <0>         0.1214
     26 H2          1.1563    3.1654    0.0076 H         1 <0>         0.1218
     27 H3          3.3051    1.9634   -0.0196 H         1 <0>         0.1211
     28 H4          1.2231   -1.7588   -0.0176 H         1 <0>         0.1217
     29 H5         -0.9258   -0.5567    0.0082 H         1 <0>         0.1222
     30 H6          3.5884   -1.6586   -0.5549 H         1 <0>         0.0777
     31 H7          4.4573   -0.1052   -0.5563 H         1 <0>         0.0772
     32 H8          4.2941   -0.0118    1.9163 H         1 <0>         0.0704
     33 H9          3.4252   -1.5652    1.9176 H         1 <0>         0.0735
     34 H10         5.3838   -2.6617    0.8639 H         1 <0>         0.0988
     35 H11         6.2527   -1.1082    0.8625 H         1 <0>         0.0979
     36 H12         6.1290   -3.7016    5.4999 H         1 <0>         0.1979
     37 H13         9.1126    2.3173    4.6719 H         1 <0>         0.4190
     38 H14         8.4550    2.2975    3.1260 H         1 <0>         0.4178
     39 H15         9.9202   -1.0744    7.5527 H         1 <0>         0.1578
     40 H16         9.4769   -2.4714    9.8117 H         1 <0>         0.1571
     41 H17         7.0523   -3.4529    9.6543 H         1 <0>         0.2127
@<TRIPOS>BOND
     1    1    6 ar
     2    1    2 ar
     3    1   25 1
     4    2    3 ar
     5    2   26 1
     6    3    4 ar
     7    3   27 1
     8    4    5 ar
     9    4    7 1
    10    5    6 ar
    11    5   28 1
    12    6   29 1
    13    7    8 1
    14    7   30 1
    15    7   31 1
    16    8    9 1
    17    8   32 1
    18    8   33 1
    19    9   10 1
    20    9   34 1
    21    9   35 1
    22   10   14 1
    23   10   11 1
    24   11   18 ar
    25   11   12 ar
    26   12   13 1
    27   12   15 ar
    28   13   14 2
    29   13   36 1
    30   15   16 ar
    31   15   20 1
    32   16   17 ar
    33   17   18 ar
    34   17   19 1
    35   19   37 1
    36   19   38 1
    37   20   24 1
    38   20   21 2
    39   21   22 1
    40   21   39 1
    41   22   23 2
    42   22   40 1
    43   23   24 1
    44   23   41 1
