@<TRIPOS>MOLECULE
CHEMBL1079801
   30    32     0     0     0
SMALL
USER_CHARGES

@<TRIPOS>ATOM
      1 C1         -0.0161    1.3418    0.0074 C.2       1 <0>        -0.2204
      2 C2          1.3231    1.7733   -0.0024 C.2       1 <0>        -0.1257
      3 C3          2.0962    0.6517   -0.0174 C.2       1 <0>        -0.0098
      4 O1          1.2789   -0.4199   -0.0169 O.3       1 <0>        -0.1645
      5 C4          0.0024   -0.0070   -0.0020 C.2       1 <0>        -0.0111
      6 C5          3.5688    0.6164   -0.0320 C.ar      1 <0>         0.2922
      7 C6          4.2529   -0.4100    0.6514 C.ar      1 <0>        -0.0975
      8 C7          5.6538   -0.4243    0.6243 C.ar      1 <0>         0.0067
      9 C8          6.3088    0.5708   -0.0730 C.ar      1 <0>        -0.2041
     10 C9          5.5679    1.5544   -0.7256 C.ar      1 <0>         0.3980
     11 N1          4.2456    1.5484   -0.6934 N.ar      1 <0>        -0.4612
     12 N2          6.2300    2.5560   -1.4275 N.am      1 <0>        -0.6552
     13 C10         5.5265    3.4526   -2.1469 C.2       1 <0>         0.5327
     14 O2          4.3144    3.4436   -2.1088 O.2       1 <0>        -0.4599
     15 C11         6.2461    4.4665   -2.9986 C.3       1 <0>        -0.1993
     16 C12         6.1735    5.9320   -2.5653 C.3       1 <0>        -0.1503
     17 C13         5.3912    5.4572   -3.7915 C.3       1 <0>        -0.1437
     18 C14         3.5281   -1.4205    1.3616 C.1       1 <0>         0.2552
     19 N3          2.9531   -2.2220    1.9250 N.1       1 <0>        -0.3968
     20 H1         -0.8933    1.9717    0.0240 H         1 <0>         0.1564
     21 H2          1.6708    2.7957    0.0012 H         1 <0>         0.1583
     22 H3         -0.8666   -0.6483    0.0022 H         1 <0>         0.2098
     23 H4          6.2085   -1.1959    1.1374 H         1 <0>         0.1565
     24 H5          7.3879    0.5873   -0.1123 H         1 <0>         0.1539
     25 H6          7.1981    2.6092   -1.3994 H         1 <0>         0.4241
     26 H7          7.1731    4.1221   -3.4571 H         1 <0>         0.1289
     27 H8          5.6054    6.1629   -1.6643 H         1 <0>         0.1013
     28 H9          7.0530    6.5522   -2.7386 H         1 <0>         0.1082
     29 H10         5.7561    5.7650   -4.7714 H         1 <0>         0.1070
     30 H11         4.3084    5.3757   -3.6971 H         1 <0>         0.1102
@<TRIPOS>BOND
     1    1    5 2
     2    1    2 1
     3    1   20 1
     4    2    3 2
     5    2   21 1
     6    3    4 1
     7    3    6 1
     8    4    5 1
     9    5   22 1
    10    6   11 ar
    11    6    7 ar
    12    7    8 ar
    13    7   18 1
    14    8    9 ar
    15    8   23 1
    16    9   10 ar
    17    9   24 1
    18   10   11 ar
    19   10   12 1
    20   12   13 am
    21   12   25 1
    22   13   14 2
    23   13   15 1
    24   15   17 1
    25   15   16 1
    26   15   26 1
    27   16   17 1
    28   16   27 1
    29   16   28 1
    30   17   29 1
    31   17   30 1
    32   18   19 3
