@<TRIPOS>MOLECULE
CHEMBL1095999
   29    32     0     0     0
SMALL
USER_CHARGES

@<TRIPOS>ATOM
      1 C1         -0.0167    1.3824    0.0096 C.ar      1 <0>        -0.0954
      2 C2          1.1645    2.0973    0.0022 C.ar      1 <0>        -0.1026
      3 C3          2.3817    1.4341   -0.0130 C.ar      1 <0>        -0.0518
      4 C4          2.4138    0.0464   -0.0208 C.ar      1 <0>        -0.1438
      5 C5          1.2127   -0.6822   -0.0132 C.ar      1 <0>        -0.0416
      6 C6          0.0021   -0.0041    0.0020 C.ar      1 <0>        -0.0663
      7 C7          1.5399   -2.1306   -0.0241 C.ar      1 <0>         0.3093
      8 C8          2.9422   -2.2720   -0.0383 C.ar      1 <0>        -0.3380
      9 C9          3.4878   -3.5692   -0.0501 C.ar      1 <0>         0.3710
     10 N1          2.6516   -4.6122   -0.0473 N.ar      1 <0>        -0.5617
     11 C10         1.3417   -4.4312   -0.0338 C.ar      1 <0>         0.6062
     12 N2          0.7889   -3.2215   -0.0228 N.ar      1 <0>        -0.5585
     13 N3          0.5182   -5.5378   -0.0319 N.pl3     1 <0>        -0.8023
     14 C11         4.9453   -3.7728   -0.0657 C.2       1 <0>        -0.0102
     15 C12         5.6189   -4.7850    0.5511 C.2       1 <0>        -0.1296
     16 C13         6.9835   -4.5902    0.2746 C.2       1 <0>        -0.2262
     17 C14         7.0788   -3.4813   -0.4892 C.2       1 <0>        -0.0009
     18 O1          5.8467   -2.9944   -0.6971 O.3       1 <0>        -0.1430
     19 C15         3.5355   -0.9268   -0.0368 C.2       1 <0>         0.4605
     20 O2          4.7213   -0.6611   -0.0468 O.2       1 <0>        -0.4048
     21 H1         -0.9610    1.9063    0.0260 H         1 <0>         0.1403
     22 H2          1.1400    3.1770    0.0079 H         1 <0>         0.1407
     23 H3          3.3038    1.9963   -0.0192 H         1 <0>         0.1406
     24 H4         -0.9259   -0.5565    0.0083 H         1 <0>         0.1401
     25 H5          0.9026   -6.4283   -0.0404 H         1 <0>         0.4216
     26 H6         -0.4452   -5.4254   -0.0221 H         1 <0>         0.4211
     27 H7          5.1878   -5.5819    1.1389 H         1 <0>         0.1570
     28 H8          7.8013   -5.2106    0.6103 H         1 <0>         0.1571
     29 H9          7.9956   -3.0584   -0.8729 H         1 <0>         0.2114
@<TRIPOS>BOND
     1    1    6 ar
     2    1    2 ar
     3    1   21 1
     4    2    3 ar
     5    2   22 1
     6    3    4 ar
     7    3   23 1
     8    4   19 1
     9    4    5 ar
    10    5    6 ar
    11    5    7 1
    12    6   24 1
    13    7   12 ar
    14    7    8 ar
    15    8    9 ar
    16    8   19 1
    17    9   10 ar
    18    9   14 1
    19   10   11 ar
    20   11   12 ar
    21   11   13 1
    22   13   25 1
    23   13   26 1
    24   14   18 1
    25   14   15 2
    26   15   16 1
    27   15   27 1
    28   16   17 2
    29   16   28 1
    30   17   18 1
    31   17   29 1
    32   19   20 2
