@<TRIPOS>MOLECULE
CHEMBL471976
   50    53     0     0     0
SMALL
USER_CHARGES

@<TRIPOS>ATOM
      1 C1         -0.0178    1.4608    0.0101 C.3       1 <0>         0.0875
      2 N1          0.0021   -0.0041    0.0020 N.pl3     1 <0>        -0.5911
      3 C2          0.0241   -0.7433    1.2666 C.3       1 <0>         0.1230
      4 C3         -1.4105   -1.0203    1.7205 C.3       1 <0>        -0.1287
      5 C4         -1.3875   -1.7923    3.0413 C.3       1 <0>        -0.0718
      6 C5         -2.8005   -2.0651    3.4884 C.ar      1 <0>        -0.1190
      7 C6         -3.4580   -1.1531    4.2932 C.ar      1 <0>        -0.0769
      8 C7         -4.7532   -1.4011    4.7048 C.ar      1 <0>        -0.1499
      9 C8         -5.3943   -2.5662    4.3095 C.ar      1 <0>         0.1227
     10 C9         -4.7326   -3.4794    3.5015 C.ar      1 <0>        -0.2063
     11 C10        -3.4393   -3.2243    3.0884 C.ar      1 <0>        -0.0755
     12 O1         -6.6683   -2.8126    4.7134 O.3       1 <0>        -0.3186
     13 C11        -7.2657   -4.0320    4.2681 C.3       1 <0>         0.0270
     14 C12         0.0000   -0.6913   -1.2033 C.2       1 <0>         0.4757
     15 C13        -0.0151    0.0079   -2.3950 C.2       1 <0>        -0.3193
     16 C14        -0.0168   -0.7184   -3.5978 C.2       1 <0>         0.3820
     17 N2         -0.0292   -0.3718   -4.8761 N.2       1 <0>        -0.5429
     18 C15        -0.0242   -1.4713   -5.6380 C.2       1 <0>         0.3563
     19 N3         -0.0085   -2.5407   -4.8638 N.2       1 <0>        -0.3348
     20 N4         -0.0034   -2.0891   -3.5380 N.pl3     1 <0>        -0.3791
     21 C16         0.0108   -2.7160   -2.3298 C.2       1 <0>         0.6821
     22 N5          0.0182   -2.0297   -1.2085 N.2       1 <0>        -0.5876
     23 N6          0.0242   -4.0897   -2.2814 N.pl3     1 <0>        -0.8069
     24 C17        -0.0346   -1.4867   -7.1159 C.2       1 <0>         0.0407
     25 C18        -0.0447   -0.3943   -7.9249 C.2       1 <0>        -0.1303
     26 C19        -0.0513   -0.8712   -9.2507 C.2       1 <0>        -0.2189
     27 C20        -0.0449   -2.2172   -9.1861 C.2       1 <0>        -0.0113
     28 O2         -0.0297   -2.5855   -7.8950 O.3       1 <0>        -0.1612
     29 H1          1.0048    1.8381    0.0023 H         1 <0>         0.0621
     30 H2         -0.5450    1.8219   -0.8730 H         1 <0>         0.0788
     31 H3         -0.5280    1.8123    0.9069 H         1 <0>         0.0781
     32 H4          0.5496   -1.6879    1.1262 H         1 <0>         0.0890
     33 H5          0.5371   -0.1514    2.0246 H         1 <0>         0.0789
     34 H6         -1.9359   -0.0757    1.8610 H         1 <0>         0.0642
     35 H7         -1.9235   -1.6122    0.9626 H         1 <0>         0.0682
     36 H8         -0.8620   -2.7369    2.9008 H         1 <0>         0.0737
     37 H9         -0.8745   -1.2004    3.7993 H         1 <0>         0.0730
     38 H10        -2.9584   -0.2463    4.6007 H         1 <0>         0.1286
     39 H11        -5.2661   -0.6888    5.3340 H         1 <0>         0.1304
     40 H12        -5.2296   -4.3871    3.1925 H         1 <0>         0.1270
     41 H13        -2.9253   -3.9329    2.4558 H         1 <0>         0.1235
     42 H14        -8.2799   -4.1044    4.6608 H         1 <0>         0.1011
     43 H15        -7.2962   -4.0450    3.1786 H         1 <0>         0.0553
     44 H16        -6.6766   -4.8767    4.6252 H         1 <0>         0.0557
     45 H17        -0.0257    1.0879   -2.4018 H         1 <0>         0.1593
     46 H18         0.0235   -4.6041   -3.1038 H         1 <0>         0.4250
     47 H19         0.0343   -4.5448   -1.4248 H         1 <0>         0.4278
     48 H20        -0.0476    0.6393   -7.6119 H         1 <0>         0.1624
     49 H21        -0.0602   -0.2715  -10.1488 H         1 <0>         0.1585
     50 H22        -0.0480   -2.8883  -10.0323 H         1 <0>         0.2122
@<TRIPOS>BOND
     1    1    2 1
     2    1   29 1
     3    1   30 1
     4    1   31 1
     5    2    3 1
     6    2   14 1
     7    3    4 1
     8    3   32 1
     9    3   33 1
    10    4    5 1
    11    4   34 1
    12    4   35 1
    13    5    6 1
    14    5   36 1
    15    5   37 1
    16    6   11 ar
    17    6    7 ar
    18    7    8 ar
    19    7   38 1
    20    8    9 ar
    21    8   39 1
    22    9   10 ar
    23    9   12 1
    24   10   11 ar
    25   10   40 1
    26   11   41 1
    27   12   13 1
    28   13   42 1
    29   13   43 1
    30   13   44 1
    31   14   22 1
    32   14   15 2
    33   15   16 1
    34   15   45 1
    35   16   20 1
    36   16   17 2
    37   17   18 1
    38   18   19 2
    39   18   24 1
    40   19   20 1
    41   20   21 1
    42   21   22 2
    43   21   23 1
    44   23   46 1
    45   23   47 1
    46   24   28 1
    47   24   25 2
    48   25   26 1
    49   25   48 1
    50   26   27 2
    51   26   49 1
    52   27   28 1
    53   27   50 1
