@<TRIPOS>MOLECULE
CHEMBL270654
   55    58     0     0     0
SMALL
USER_CHARGES

@<TRIPOS>ATOM
      1 C1         -0.0270    1.5052    0.0152 C.3       1 <0>        -0.0761
      2 C2         -0.0058   -0.0016    0.0059 C.2       1 <0>         0.1018
      3 C3         -0.0010   -0.8138   -1.1343 C.2       1 <0>        -0.2628
      4 C4          0.0195   -2.1035   -0.7278 C.2       1 <0>         0.1215
      5 N1          0.0273   -2.1062    0.6311 N.pl3     1 <0>        -0.3340
      6 N2          0.0168   -0.7731    1.0618 N.2       1 <0>        -0.2866
      7 C5          0.0479   -3.2358    1.4515 C.ar      1 <0>         0.4472
      8 C6          0.5560   -3.1585    2.7443 C.ar      1 <0>        -0.2551
      9 C7          0.5563   -4.3110    3.5266 C.ar      1 <0>         0.4308
     10 N3          0.0745   -5.4391    3.0159 N.ar      1 <0>        -0.5081
     11 C8         -0.4016   -5.4750    1.7799 C.ar      1 <0>         0.4269
     12 N4         -0.4225   -4.3968    1.0098 N.ar      1 <0>        -0.5204
     13 C9         -0.9310   -6.7547    1.2461 C.ar      1 <0>         0.1626
     14 C10        -0.9255   -7.8927    2.0490 C.ar      1 <0>        -0.1105
     15 C11        -1.4227   -9.0796    1.5374 C.ar      1 <0>        -0.0847
     16 C12        -1.9092   -9.0880    0.2383 C.ar      1 <0>        -0.1500
     17 C13        -1.8840   -7.9201   -0.5029 C.ar      1 <0>         0.0956
     18 N5         -1.4104   -6.8037    0.0104 N.ar      1 <0>        -0.4411
     19 N6          1.0549   -4.2815    4.8249 N.am      1 <0>        -0.6539
     20 C14         0.9578   -5.3734    5.6091 C.2       1 <0>         0.5092
     21 O1          0.5203   -6.4092    5.1548 O.2       1 <0>        -0.4528
     22 C15         1.3928   -5.3071    7.0504 C.3       1 <0>        -0.1084
     23 C16         1.1828   -6.6502    7.7008 C.ar      1 <0>        -0.0179
     24 C17        -0.0219   -6.9408    8.3131 C.ar      1 <0>        -0.1226
     25 C18        -0.2146   -8.1728    8.9097 C.ar      1 <0>        -0.0210
     26 C19         0.7974   -9.1144    8.8936 C.ar      1 <0>        -0.6566
     27 C20         2.0019   -8.8241    8.2805 C.ar      1 <0>        -0.0212
     28 C21         2.1930   -7.5936    7.6801 C.ar      1 <0>        -0.1227
     29 S1          0.5523  -10.6843    9.6551 S.o2      1 <0>         2.4994
     30 O2          1.8568  -11.1242   10.0071 O.2       1 <0>        -0.9372
     31 O3         -0.4288  -10.4523   10.6565 O.2       1 <0>        -0.9372
     32 C22        -0.1294  -11.7368    8.3443 C.3       1 <0>        -0.6499
     33 C23         0.0307   -3.3178   -1.6203 C.3       1 <0>        -0.1118
     34 H1          0.9954    1.8830    0.0064 H         1 <0>         0.0834
     35 H2         -0.5554    1.8666   -0.8670 H         1 <0>         0.0838
     36 H3         -0.5362    1.8559    0.9128 H         1 <0>         0.0767
     37 H4         -0.0117   -0.4707   -2.1583 H         1 <0>         0.1588
     38 H5          0.9414   -2.2271    3.1320 H         1 <0>         0.1609
     39 H6         -0.5385   -7.8501    3.0564 H         1 <0>         0.1571
     40 H7         -1.4312   -9.9784    2.1361 H         1 <0>         0.1415
     41 H8         -2.3034   -9.9975   -0.1904 H         1 <0>         0.1409
     42 H9         -2.2619   -7.9229   -1.5146 H         1 <0>         0.1639
     43 H10         1.4724   -3.4751    5.1659 H         1 <0>         0.4254
     44 H11         2.4487   -5.0408    7.0993 H         1 <0>         0.1158
     45 H12         0.8036   -4.5539    7.5735 H         1 <0>         0.1163
     46 H13        -0.8126   -6.2052    8.3257 H         1 <0>         0.1320
     47 H14        -1.1556   -8.3996    9.3887 H         1 <0>         0.1436
     48 H15         2.7926   -9.5596    8.2682 H         1 <0>         0.1437
     49 H16         3.1327   -7.3682    7.1979 H         1 <0>         0.1322
     50 H17         0.5804  -11.7953    7.5192 H         1 <0>         0.1319
     51 H18        -0.3112  -12.7365    8.7388 H         1 <0>         0.1336
     52 H19        -1.0672  -11.3110    7.9873 H         1 <0>         0.1319
     53 H20         1.0609   -3.5966   -1.8416 H         1 <0>         0.0761
     54 H21        -0.4689   -4.1445   -1.1152 H         1 <0>         0.1126
     55 H22        -0.4919   -3.0906   -2.5495 H         1 <0>         0.0853
@<TRIPOS>BOND
     1    1    2 1
     2    1   34 1
     3    1   35 1
     4    1   36 1
     5    2    6 2
     6    2    3 1
     7    3    4 2
     8    3   37 1
     9    4    5 1
    10    4   33 1
    11    5    6 1
    12    5    7 1
    13    7   12 ar
    14    7    8 ar
    15    8    9 ar
    16    8   38 1
    17    9   10 ar
    18    9   19 1
    19   10   11 ar
    20   11   12 ar
    21   11   13 1
    22   13   18 ar
    23   13   14 ar
    24   14   15 ar
    25   14   39 1
    26   15   16 ar
    27   15   40 1
    28   16   17 ar
    29   16   41 1
    30   17   18 ar
    31   17   42 1
    32   19   20 am
    33   19   43 1
    34   20   21 2
    35   20   22 1
    36   22   23 1
    37   22   44 1
    38   22   45 1
    39   23   28 ar
    40   23   24 ar
    41   24   25 ar
    42   24   46 1
    43   25   26 ar
    44   25   47 1
    45   26   27 ar
    46   26   29 1
    47   27   28 ar
    48   27   48 1
    49   28   49 1
    50   29   30 2
    51   29   31 2
    52   29   32 1
    53   32   50 1
    54   32   51 1
    55   32   52 1
    56   33   53 1
    57   33   54 1
    58   33   55 1
