@<TRIPOS>MOLECULE
CHEMBL470942
   64    69     0     0     0
SMALL
USER_CHARGES

@<TRIPOS>ATOM
      1 C1         -0.0162    1.3434    0.0094 C.2       1 <0>        -0.2189
      2 C2          1.3252    1.7744   -0.0011 C.2       1 <0>        -0.1303
      3 C3          2.0961    0.6548   -0.0144 C.2       1 <0>         0.0408
      4 O1          1.2797   -0.4166   -0.0124 O.3       1 <0>        -0.1613
      5 C4          0.0021   -0.0041    0.0020 C.2       1 <0>        -0.0117
      6 C5          3.5737    0.6193   -0.0287 C.2       1 <0>         0.3559
      7 N1          4.3730    1.6920   -0.0248 N.2       1 <0>        -0.5414
      8 C6          5.6386    1.3016   -0.0401 C.2       1 <0>         0.3816
      9 C7          6.8656    1.9861   -0.0443 C.2       1 <0>        -0.3157
     10 C8          8.0325    1.2463   -0.0628 C.2       1 <0>         0.4782
     11 N2          7.9812   -0.0912   -0.0761 N.2       1 <0>        -0.5838
     12 C9          6.8369   -0.7384   -0.0722 C.2       1 <0>         0.6810
     13 N3          5.6511   -0.0704   -0.0544 N.pl3     1 <0>        -0.3784
     14 N4          4.3106   -0.4761   -0.0417 N.2       1 <0>        -0.3351
     15 N5          6.8380   -2.1130   -0.0865 N.pl3     1 <0>        -0.8075
     16 N6          9.2607    1.8916   -0.0679 N.pl3     1 <0>        -0.5838
     17 C10         9.3192    3.3554   -0.0538 C.3       1 <0>         0.1243
     18 C11         9.3532    3.8505    1.3935 C.3       1 <0>         0.0371
     19 N7          9.4118    5.3182    1.4076 N.3       1 <0>        -0.5293
     20 C12        10.6763    5.8001    0.8360 C.3       1 <0>         0.0346
     21 C13        10.6239    7.3257    0.7020 C.3       1 <0>         0.1498
     22 N8         10.2751    7.8981    2.0112 N.pl3     1 <0>        -0.6756
     23 C14         9.0950    7.3674    2.7105 C.3       1 <0>         0.1499
     24 C15         9.2076    5.8402    2.7655 C.3       1 <0>         0.0416
     25 C16        11.0456    8.9211    2.5765 C.ar      1 <0>         0.1291
     26 C17        10.7342   10.2490    2.3193 C.ar      1 <0>        -0.0661
     27 C18        11.4958   11.2573    2.8781 C.ar      1 <0>        -0.1569
     28 C19        12.5699   10.9450    3.6940 C.ar      1 <0>         0.1270
     29 C20        12.8840    9.6215    3.9526 C.ar      1 <0>        -0.1897
     30 C21        12.1207    8.6086    3.4011 C.ar      1 <0>         0.1205
     31 F1         12.4230    7.3172    3.6582 F         1 <0>        -0.1269
     32 F2         13.3129   11.9332    4.2385 F         1 <0>        -0.1305
     33 C22        10.4992    1.1092   -0.0875 C.3       1 <0>         0.1560
     34 C23        10.9167    0.8513   -1.5366 C.3       1 <0>        -0.1712
     35 C24        10.9425   -0.6013   -2.0165 C.3       1 <0>        -0.1666
     36 C25        12.2544    0.1469   -1.7717 C.3       1 <0>        -0.1770
     37 H1         -0.8931    1.9736    0.0252 H         1 <0>         0.1584
     38 H2          1.6736    2.7966    0.0008 H         1 <0>         0.1625
     39 H3         -0.8667   -0.6456    0.0069 H         1 <0>         0.2120
     40 H4          6.8960    3.0656   -0.0338 H         1 <0>         0.1613
     41 H5          7.6784   -2.5973   -0.0992 H         1 <0>         0.4275
     42 H6          5.9984   -2.5988   -0.0837 H         1 <0>         0.4248
     43 H7         10.2181    3.6881   -0.5728 H         1 <0>         0.0855
     44 H8          8.4396    3.7590   -0.5553 H         1 <0>         0.0960
     45 H9          8.4543    3.5177    1.9125 H         1 <0>         0.0821
     46 H10        10.2328    3.4469    1.8950 H         1 <0>         0.0374
     47 H11        11.5015    5.5207    1.4912 H         1 <0>         0.0390
     48 H12        10.8247    5.3535   -0.1471 H         1 <0>         0.0832
     49 H13        11.5982    7.6993    0.3869 H         1 <0>         0.0718
     50 H14         9.8674    7.6030   -0.0321 H         1 <0>         0.0648
     51 H15         9.0585    7.7686    3.7234 H         1 <0>         0.0722
     52 H16         8.1915    7.6487    2.1695 H         1 <0>         0.0655
     53 H17         8.2908    5.4226    3.1816 H         1 <0>         0.0834
     54 H18        10.0532    5.5602    3.3937 H         1 <0>         0.0382
     55 H19         9.8970   10.4940    1.6825 H         1 <0>         0.1450
     56 H20        11.2532   12.2905    2.6778 H         1 <0>         0.1446
     57 H21        13.7227    9.3801    4.5888 H         1 <0>         0.1479
     58 H22        11.2865    1.6624    0.4245 H         1 <0>         0.0789
     59 H23        10.3358    0.1576    0.4184 H         1 <0>         0.0901
     60 H24        10.6162    1.6138   -2.2552 H         1 <0>         0.1036
     61 H25        10.6620   -1.3732   -1.2998 H         1 <0>         0.0969
     62 H26        10.6588   -0.7946   -3.0510 H         1 <0>         0.0892
     63 H27        12.8339    0.4458   -2.6452 H         1 <0>         0.0942
     64 H28        12.8370   -0.1327   -0.8940 H         1 <0>         0.0947
@<TRIPOS>BOND
     1    1    5 2
     2    1    2 1
     3    1   37 1
     4    2    3 2
     5    2   38 1
     6    3    4 1
     7    3    6 1
     8    4    5 1
     9    5   39 1
    10    6   14 2
    11    6    7 1
    12    7    8 2
    13    8   13 1
    14    8    9 1
    15    9   10 2
    16    9   40 1
    17   10   11 1
    18   10   16 1
    19   11   12 2
    20   12   13 1
    21   12   15 1
    22   13   14 1
    23   15   41 1
    24   15   42 1
    25   16   17 1
    26   16   33 1
    27   17   18 1
    28   17   43 1
    29   17   44 1
    30   18   19 1
    31   18   45 1
    32   18   46 1
    33   19   24 1
    34   19   20 1
    35   20   21 1
    36   20   47 1
    37   20   48 1
    38   21   22 1
    39   21   49 1
    40   21   50 1
    41   22   23 1
    42   22   25 1
    43   23   24 1
    44   23   51 1
    45   23   52 1
    46   24   53 1
    47   24   54 1
    48   25   30 ar
    49   25   26 ar
    50   26   27 ar
    51   26   55 1
    52   27   28 ar
    53   27   56 1
    54   28   29 ar
    55   28   32 1
    56   29   30 ar
    57   29   57 1
    58   30   31 1
    59   33   34 1
    60   33   58 1
    61   33   59 1
    62   34   36 1
    63   34   35 1
    64   34   60 1
    65   35   36 1
    66   35   61 1
    67   35   62 1
    68   36   63 1
    69   36   64 1
