@<TRIPOS>MOLECULE
CHEMBL271202
   54    57     0     0     0
SMALL
USER_CHARGES

@<TRIPOS>ATOM
      1 C1         -0.0266    1.5052    0.0150 C.3       1 <0>        -0.0783
      2 C2         -0.0056   -0.0017    0.0058 C.2       1 <0>         0.1093
      3 C3         -0.0007   -0.8139   -1.1344 C.2       1 <0>        -0.2566
      4 C4          0.0202   -2.1036   -0.7279 C.2       1 <0>         0.1201
      5 N1          0.0283   -2.1063    0.6310 N.pl3     1 <0>        -0.3386
      6 N2          0.0170   -0.7732    1.0617 N.2       1 <0>        -0.2881
      7 C5          0.0493   -3.2358    1.4515 C.ar      1 <0>         0.4600
      8 C6          0.5578   -3.1581    2.7443 C.ar      1 <0>        -0.2479
      9 C7          0.5591   -4.3101    3.5277 C.ar      1 <0>         0.4320
     10 N3          0.0779   -5.4389    3.0187 N.ar      1 <0>        -0.5077
     11 C8         -0.3994   -5.4763    1.7811 C.ar      1 <0>         0.4676
     12 N4         -0.4207   -4.3966    1.0097 N.ar      1 <0>        -0.5172
     13 C9         -0.9257   -6.7516    1.2501 C.2       1 <0>         0.1265
     14 N5         -1.4384   -7.0185    0.0570 N.2       1 <0>        -0.4490
     15 C10        -1.8621   -8.2191   -0.2495 C.2       1 <0>         0.0208
     16 C11        -1.7795   -9.2223    0.6682 C.2       1 <0>        -0.1897
     17 S1         -1.0352   -8.3512    2.0416 S.3       1 <0>         0.1068
     18 N6          1.0582   -4.2789    4.8258 N.am      1 <0>        -0.6508
     19 C12         0.9622   -5.3700    5.6111 C.2       1 <0>         0.5056
     20 O1          0.5252   -6.4066    5.1581 O.2       1 <0>        -0.4450
     21 C13         1.3979   -5.3020    7.0521 C.3       1 <0>         0.0381
     22 N7          1.1944   -6.6107    7.6875 N.3       1 <0>        -0.5232
     23 C14        -0.2360   -6.9369    7.7753 C.3       1 <0>         0.0172
     24 C15        -0.4019   -8.3298    8.3869 C.3       1 <0>         0.0004
     25 N8          0.2062   -8.3533    9.7238 N.4       1 <0>        -0.3894
     26 C16         1.6394   -8.0499    9.6171 C.3       1 <0>        -0.0014
     27 C17         1.8222   -6.6547    9.0157 C.3       1 <0>         0.0268
     28 C18         0.0308   -9.6853   10.3178 C.3       1 <0>        -0.0458
     29 C19         0.0319   -3.3179   -1.6203 C.3       1 <0>        -0.1114
     30 H1          0.9958    1.8829    0.0063 H         1 <0>         0.0857
     31 H2         -0.5550    1.8665   -0.8672 H         1 <0>         0.0862
     32 H3         -0.5359    1.8559    0.9126 H         1 <0>         0.0778
     33 H4         -0.0117   -0.4709   -2.1584 H         1 <0>         0.1619
     34 H5          0.9429   -2.2263    3.1314 H         1 <0>         0.1655
     35 H6         -2.2765   -8.4133   -1.2278 H         1 <0>         0.1780
     36 H7         -2.0765  -10.2575    0.5873 H         1 <0>         0.2069
     37 H8          1.4752   -3.4718    5.1658 H         1 <0>         0.4272
     38 H9          2.4536   -5.0349    7.1003 H         1 <0>         0.1242
     39 H10         0.8083   -4.5487    7.5748 H         1 <0>         0.0837
     40 H11        -0.7388   -6.2016    8.4034 H         1 <0>         0.0587
     41 H12        -0.6740   -6.9234    6.7772 H         1 <0>         0.1394
     42 H13        -1.4626   -8.5679    8.4660 H         1 <0>         0.1366
     43 H14         0.0894   -9.0665    7.7513 H         1 <0>         0.1406
     44 H15         2.0919   -8.0805   10.6082 H         1 <0>         0.1380
     45 H16         2.1202   -8.7881    8.9752 H         1 <0>         0.1393
     46 H17         2.8859   -6.4353    8.9226 H         1 <0>         0.1264
     47 H18         1.3533   -5.9147    9.6643 H         1 <0>         0.0639
     48 H19         0.5130  -10.4312    9.6861 H         1 <0>         0.1236
     49 H20         0.4819   -9.7029   11.3099 H         1 <0>         0.1243
     50 H21        -1.0327   -9.9101   10.3983 H         1 <0>         0.1244
     51 H22         1.0623   -3.5963   -1.8416 H         1 <0>         0.0786
     52 H23        -0.4674   -4.1448   -1.1153 H         1 <0>         0.1076
     53 H24        -0.4907   -3.0909   -2.5496 H         1 <0>         0.0886
     54 H25        -0.2409   -7.6631   10.3085 H         1 <0>         0.4218
@<TRIPOS>BOND
     1    1    2 1
     2    1   30 1
     3    1   31 1
     4    1   32 1
     5    2    6 2
     6    2    3 1
     7    3    4 2
     8    3   33 1
     9    4    5 1
    10    4   29 1
    11    5    6 1
    12    5    7 1
    13    7   12 ar
    14    7    8 ar
    15    8    9 ar
    16    8   34 1
    17    9   10 ar
    18    9   18 1
    19   10   11 ar
    20   11   12 ar
    21   11   13 1
    22   13   17 1
    23   13   14 2
    24   14   15 1
    25   15   16 2
    26   15   35 1
    27   16   17 1
    28   16   36 1
    29   18   19 am
    30   18   37 1
    31   19   20 2
    32   19   21 1
    33   21   22 1
    34   21   38 1
    35   21   39 1
    36   22   27 1
    37   22   23 1
    38   23   24 1
    39   23   40 1
    40   23   41 1
    41   24   25 1
    42   24   42 1
    43   24   43 1
    44   25   26 1
    45   25   28 1
    46   25   54 1
    47   26   27 1
    48   26   44 1
    49   26   45 1
    50   27   46 1
    51   27   47 1
    52   28   48 1
    53   28   49 1
    54   28   50 1
    55   29   51 1
    56   29   52 1
    57   29   53 1
