@<TRIPOS>MOLECULE
CHEMBL87459
   56    59     0     0     0
SMALL
USER_CHARGES

@<TRIPOS>ATOM
      1 C1         -0.0164    1.3602    0.0095 C.2       1 <0>         0.2450
      2 N1          1.2002    1.8207    0.0004 N.2       1 <0>        -0.4508
      3 C2          2.0747    0.7847   -0.0135 C.ar      1 <0>        -0.1563
      4 C3          3.4764    0.6773   -0.0279 C.ar      1 <0>         0.5439
      5 N2          4.0206   -0.5342   -0.0400 N.ar      1 <0>        -0.6241
      6 C4          3.2653   -1.6255   -0.0386 C.ar      1 <0>         0.6301
      7 N3          1.9436   -1.5695   -0.0253 N.ar      1 <0>        -0.6047
      8 C5          1.3163   -0.3973   -0.0126 C.ar      1 <0>         0.3608
      9 N4          0.0021   -0.0041    0.0020 N.pl3     1 <0>        -0.4753
     10 C6         -1.1670   -0.8870    0.0084 C.3       1 <0>         0.3164
     11 C7         -1.5547   -1.2553    1.4577 C.3       1 <0>         0.0795
     12 H1         -1.1961   -0.4968    2.1535 H         1 <0>         0.0855
     13 C8         -3.0994   -1.2843    1.4372 C.3       1 <0>         0.0468
     14 H2         -3.5045   -0.5401    2.1230 H         1 <0>         0.0864
     15 C9         -3.4622   -0.9300   -0.0220 C.3       1 <0>         0.0506
     16 H3         -3.6135   -1.8375   -0.6064 H         1 <0>         0.0990
     17 O1         -2.3211   -0.1968   -0.5183 O.3       1 <0>        -0.3467
     18 C10        -4.7178   -0.0566   -0.0616 C.3       1 <0>         0.0822
     19 O2         -5.1027    0.1628   -1.4202 O.3       1 <0>        -0.5634
     20 O3         -3.5803   -2.5873    1.7734 O.3       1 <0>        -0.5393
     21 O4         -1.0317   -2.5390    1.8051 O.3       1 <0>        -0.5260
     22 N5          3.8820   -2.8657   -0.0520 N.pl3     1 <0>        -0.6953
     23 C11         5.3441   -2.9566   -0.0674 C.3       1 <0>         0.1391
     24 C12         5.7635   -4.4279   -0.0802 C.3       1 <0>        -0.1298
     25 C13         7.2905   -4.5228   -0.0962 C.3       1 <0>        -0.0808
     26 C14         7.8241   -3.9385   -1.4057 C.3       1 <0>        -0.1181
     27 C15         9.3511   -4.0334   -1.4217 C.3       1 <0>        -0.1204
     28 C16         9.7721   -5.4999   -1.3087 C.3       1 <0>        -0.1211
     29 C17         9.2385   -6.0843    0.0007 C.3       1 <0>        -0.1202
     30 C18         7.7116   -5.9894    0.0168 C.3       1 <0>        -0.1141
     31 N6          4.2719    1.8093   -0.0299 N.pl3     1 <0>        -0.8167
     32 H4         -0.9091    1.9679    0.0254 H         1 <0>         0.2191
     33 H5         -0.9651   -1.7869   -0.5725 H         1 <0>         0.1207
     34 H6         -5.5268   -0.5591    0.4686 H         1 <0>         0.0662
     35 H7         -4.5097    0.9007    0.4162 H         1 <0>         0.0610
     36 H8         -5.8934    0.7101   -1.5215 H         1 <0>         0.3863
     37 H9         -4.5444   -2.6623    1.7757 H         1 <0>         0.3867
     38 H10        -1.2454   -2.8204    2.7052 H         1 <0>         0.3893
     39 H11         3.3458   -3.6740   -0.0513 H         1 <0>         0.4143
     40 H12         5.7296   -2.4611   -0.9585 H         1 <0>         0.0693
     41 H13         5.7477   -2.4714    0.8213 H         1 <0>         0.0659
     42 H14         5.3781   -4.9233    0.8109 H         1 <0>         0.0702
     43 H15         5.3600   -4.9131   -0.9689 H         1 <0>         0.0700
     44 H16         7.6983   -3.9619    0.7448 H         1 <0>         0.0735
     45 H17         7.4163   -4.4994   -2.2466 H         1 <0>         0.0620
     46 H18         7.5241   -2.8936   -1.4862 H         1 <0>         0.0657
     47 H19         9.7312   -3.6170   -2.3546 H         1 <0>         0.0608
     48 H20         9.7588   -3.4725   -0.5808 H         1 <0>         0.0615
     49 H21         9.3644   -6.0608   -2.1497 H         1 <0>         0.0606
     50 H22        10.8599   -5.5675   -1.3202 H         1 <0>         0.0598
     51 H23         9.5385   -7.1291    0.0812 H         1 <0>         0.0609
     52 H24         9.6463   -5.5234    0.8417 H         1 <0>         0.0614
     53 H25         7.3314   -6.4057    0.9497 H         1 <0>         0.0618
     54 H26         7.3038   -6.5503   -0.8242 H         1 <0>         0.0623
     55 H27         3.8635    2.6891   -0.0213 H         1 <0>         0.4198
     56 H28         5.2381    1.7231   -0.0398 H         1 <0>         0.4091
@<TRIPOS>BOND
     1    1    9 1
     2    1    2 2
     3    1   32 1
     4    2    3 1
     5    3    8 ar
     6    3    4 ar
     7    4    5 ar
     8    4   31 1
     9    5    6 ar
    10    6    7 ar
    11    6   22 1
    12    7    8 ar
    13    8    9 1
    14    9   10 1
    15   10   17 1
    16   10   11 1
    17   10   33 1
    18   11   12 1
    19   11   13 1
    20   11   21 1
    21   13   14 1
    22   13   15 1
    23   13   20 1
    24   15   16 1
    25   15   17 1
    26   15   18 1
    27   18   19 1
    28   18   34 1
    29   18   35 1
    30   19   36 1
    31   20   37 1
    32   21   38 1
    33   22   23 1
    34   22   39 1
    35   23   24 1
    36   23   40 1
    37   23   41 1
    38   24   25 1
    39   24   42 1
    40   24   43 1
    41   25   30 1
    42   25   26 1
    43   25   44 1
    44   26   27 1
    45   26   45 1
    46   26   46 1
    47   27   28 1
    48   27   47 1
    49   27   48 1
    50   28   29 1
    51   28   49 1
    52   28   50 1
    53   29   30 1
    54   29   51 1
    55   29   52 1
    56   30   53 1
    57   30   54 1
    58   31   55 1
    59   31   56 1
