@<TRIPOS>MOLECULE
CHEMBL162666
   55    56     0     0     0
SMALL
USER_CHARGES

@<TRIPOS>ATOM
      1 C1         -0.0933    1.4911    0.0615 C.3       1 <0>        -0.1512
      2 C2         -0.0664   -0.0385    0.0357 C.3       1 <0>        -0.1233
      3 C3          0.6760   -0.5146   -1.2145 C.3       1 <0>         0.0596
      4 O1          0.7010   -1.9431   -1.2385 O.3       1 <0>        -0.3442
      5 C4          1.3222   -2.5266   -2.2822 C.2       1 <0>         0.5260
      6 O2          1.8286   -1.8412   -3.1482 O.2       1 <0>        -0.4767
      7 C5          1.3873   -3.9975   -2.3735 C.ar      1 <0>        -0.1544
      8 C6          0.3231   -4.7228   -2.9133 C.ar      1 <0>         0.0483
      9 C7          0.4360   -6.1146   -2.9770 C.ar      1 <0>        -0.1858
     10 C8          1.5998   -6.7278   -2.5025 C.ar      1 <0>         0.2092
     11 N1          2.5844   -6.0160   -1.9996 N.ar      1 <0>        -0.4620
     12 C9          2.5259   -4.6927   -1.9230 C.ar      1 <0>         0.2453
     13 C10         3.6662   -3.9403   -1.3534 C.ar      1 <0>        -0.0679
     14 C11         3.4396   -2.9087   -0.4417 C.ar      1 <0>        -0.1038
     15 C12         4.5068   -2.2112    0.0856 C.ar      1 <0>        -0.1177
     16 C13         5.7996   -2.5325   -0.2882 C.ar      1 <0>        -0.0985
     17 C14         6.0310   -3.5544   -1.1918 C.ar      1 <0>        -0.1210
     18 C15         4.9727   -4.2636   -1.7215 C.ar      1 <0>        -0.0690
     19 C16         1.7273   -8.2280   -2.5680 C.3       1 <0>        -0.0878
     20 C17         2.3618   -8.6282   -3.9014 C.3       1 <0>        -0.1488
     21 C18        -0.6614   -6.9284   -3.5387 C.2       1 <0>         0.4116
     22 O3         -0.6817   -7.1845   -4.7274 O.2       1 <0>        -0.4214
     23 S1         -1.9412   -7.5279   -2.4864 S.3       1 <0>        -0.1606
     24 C19        -3.0319   -8.4510   -3.6039 C.3       1 <0>        -0.0961
     25 C20        -4.2021   -9.0334   -2.8087 C.3       1 <0>        -0.1392
     26 C21        -0.9146   -4.0236   -3.4136 C.3       1 <0>        -0.1006
     27 C22        -0.7422   -3.6785   -4.8942 C.3       1 <0>         0.0797
     28 O4         -1.9158   -3.0155   -5.3686 O.3       1 <0>        -0.5681
     29 H1          0.9278    1.8722    0.0780 H         1 <0>         0.0590
     30 H2         -0.6046    1.8605   -0.8275 H         1 <0>         0.0590
     31 H3         -0.6221    1.8303    0.9522 H         1 <0>         0.0673
     32 H4          0.4449   -0.4079    0.9247 H         1 <0>         0.0756
     33 H5         -1.0875   -0.4195    0.0192 H         1 <0>         0.0761
     34 H6          0.1646   -0.1451   -2.1034 H         1 <0>         0.0719
     35 H7          1.6970   -0.1335   -1.1980 H         1 <0>         0.0726
     36 H8          2.4308   -2.6565   -0.1497 H         1 <0>         0.1322
     37 H9          4.3327   -1.4125    0.7914 H         1 <0>         0.1298
     38 H10         6.6316   -1.9831    0.1269 H         1 <0>         0.1288
     39 H11         7.0424   -3.8005   -1.4796 H         1 <0>         0.1310
     40 H12         5.1549   -5.0642   -2.4231 H         1 <0>         0.1306
     41 H13         2.3556   -8.5754   -1.7478 H         1 <0>         0.1006
     42 H14         0.7391   -8.6806   -2.4855 H         1 <0>         0.0850
     43 H15         1.7335   -8.2808   -4.7216 H         1 <0>         0.0596
     44 H16         3.3500   -8.1756   -3.9839 H         1 <0>         0.0644
     45 H17         2.4540   -9.7132   -3.9488 H         1 <0>         0.0717
     46 H18        -3.4137   -7.7812   -4.3744 H         1 <0>         0.0955
     47 H19        -2.4717   -9.2607   -4.0716 H         1 <0>         0.0959
     48 H20        -3.8202   -9.7033   -2.0383 H         1 <0>         0.0692
     49 H21        -4.7623   -8.2237   -2.3411 H         1 <0>         0.0691
     50 H22        -4.8574   -9.5881   -3.4802 H         1 <0>         0.0817
     51 H23        -1.7768   -4.6792   -3.2914 H         1 <0>         0.0976
     52 H24        -1.0705   -3.1081   -2.8429 H         1 <0>         0.0967
     53 H25         0.1200   -3.0229   -5.0164 H         1 <0>         0.0553
     54 H26        -0.5863   -4.5940   -5.4649 H         1 <0>         0.0552
     55 H27        -1.8767   -2.7666   -6.3022 H         1 <0>         0.3871
@<TRIPOS>BOND
     1    1    2 1
     2    1   29 1
     3    1   30 1
     4    1   31 1
     5    2    3 1
     6    2   32 1
     7    2   33 1
     8    3    4 1
     9    3   34 1
    10    3   35 1
    11    4    5 1
    12    5    6 2
    13    5    7 1
    14    7   12 ar
    15    7    8 ar
    16    8    9 ar
    17    8   26 1
    18    9   10 ar
    19    9   21 1
    20   10   11 ar
    21   10   19 1
    22   11   12 ar
    23   12   13 1
    24   13   18 ar
    25   13   14 ar
    26   14   15 ar
    27   14   36 1
    28   15   16 ar
    29   15   37 1
    30   16   17 ar
    31   16   38 1
    32   17   18 ar
    33   17   39 1
    34   18   40 1
    35   19   20 1
    36   19   41 1
    37   19   42 1
    38   20   43 1
    39   20   44 1
    40   20   45 1
    41   21   22 2
    42   21   23 1
    43   23   24 1
    44   24   25 1
    45   24   46 1
    46   24   47 1
    47   25   48 1
    48   25   49 1
    49   25   50 1
    50   26   27 1
    51   26   51 1
    52   26   52 1
    53   27   28 1
    54   27   53 1
    55   27   54 1
    56   28   55 1
