@<TRIPOS>MOLECULE
CHEMBL376346
   59    64     0     0     0
SMALL
USER_CHARGES

@<TRIPOS>ATOM
      1 C1         -0.0186    1.3766   -0.0856 C.ar      1 <0>        -0.1600
      2 C2          1.1669    2.0856   -0.1485 C.ar      1 <0>        -0.0800
      3 C3          2.3746    1.4149   -0.1551 C.ar      1 <0>        -0.1513
      4 C4          2.3974    0.0290   -0.0980 C.ar      1 <0>         0.1296
      5 C5          1.2066   -0.6800   -0.0345 C.ar      1 <0>        -0.2137
      6 C6          0.0014   -0.0047   -0.0287 C.ar      1 <0>        -0.0802
      7 O1          3.5841   -0.6331   -0.1048 O.3       1 <0>        -0.2924
      8 C7          3.5315   -2.0598   -0.0438 C.3       1 <0>         0.0618
      9 C8          4.9536   -2.6239   -0.0615 C.3       1 <0>         0.0873
     10 H1          4.9100   -3.7131   -0.0668 H         1 <0>         0.0631
     11 C9          5.6746   -2.1400   -1.3189 C.3       1 <0>        -0.1116
     12 C10         7.0948   -2.7154   -1.3247 C.3       1 <0>        -0.1218
     13 C11         7.8162   -2.2479   -0.0601 C.3       1 <0>        -0.1128
     14 C12         7.0408   -2.7005    1.1818 C.3       1 <0>         0.0728
     15 H2          7.0174   -3.7895    1.2207 H         1 <0>         0.0521
     16 N1          5.6728   -2.1707    1.1399 N.3       1 <0>        -0.5099
     17 C13         4.9065   -2.5650    2.3343 C.3       1 <0>         0.0291
     18 C14         5.5584   -1.9801    3.5891 C.3       1 <0>         0.1137
     19 N2          6.9669   -2.4062    3.6104 N.pl3     1 <0>        -0.5687
     20 C15         7.7739   -2.1576    2.4159 C.3       1 <0>         0.1295
     21 C16         7.5046   -3.0194    4.7109 C.2       1 <0>         0.6735
     22 N3          6.7108   -3.2440    5.8096 N.pl3     1 <0>        -0.6628
     23 C17         7.0697   -4.2553    6.7003 C.2       1 <0>         0.6371
     24 N4          8.4344   -4.4823    6.7704 N.pl3     1 <0>        -0.4346
     25 C18         9.2665   -4.0492    5.7586 C.2       1 <0>         0.5171
     26 N5          8.7750   -3.3871    4.6900 N.2       1 <0>        -0.5459
     27 N6         10.4849   -4.4047    6.0758 N.2       1 <0>        -0.4986
     28 C19        10.4752   -5.0458    7.2587 C.2       1 <0>         0.3357
     29 N7          9.2343   -5.1083    7.7119 N.2       1 <0>        -0.2870
     30 C20        11.6642   -5.5944    7.9435 C.2       1 <0>         0.0428
     31 C21        12.9449   -5.5322    7.4915 C.2       1 <0>        -0.1301
     32 C22        13.7468   -6.1771    8.4540 C.2       1 <0>        -0.2182
     33 C23        12.9246   -6.5967    9.4358 C.2       1 <0>        -0.0109
     34 O2         11.6681   -6.2379    9.1269 O.3       1 <0>        -0.1611
     35 N8          6.2009   -4.9249    7.4029 N.2       1 <0>        -0.6844
     36 H3         -0.9616    1.9030   -0.0765 H         1 <0>         0.1230
     37 H4          1.1486    3.1645   -0.1929 H         1 <0>         0.1286
     38 H5          3.3002    1.9691   -0.2049 H         1 <0>         0.1302
     39 H6          1.2217   -1.7590    0.0096 H         1 <0>         0.1239
     40 H7         -0.9258   -0.5562    0.0206 H         1 <0>         0.1233
     41 H8          3.0305   -2.3660    0.8745 H         1 <0>         0.0650
     42 H9          2.9791   -2.4401   -0.9032 H         1 <0>         0.0687
     43 H10         5.1375   -2.4833   -2.2031 H         1 <0>         0.0694
     44 H11         5.7214   -1.0510   -1.3170 H         1 <0>         0.0852
     45 H12         7.0483   -3.8043   -1.3380 H         1 <0>         0.0605
     46 H13         7.6304   -2.3588   -2.2045 H         1 <0>         0.0727
     47 H14         8.8187   -2.6751   -0.0365 H         1 <0>         0.0756
     48 H15         7.8879   -1.1602   -0.0655 H         1 <0>         0.0786
     49 H16         3.8860   -2.1916    2.2491 H         1 <0>         0.1003
     50 H17         4.8875   -3.6522    2.4095 H         1 <0>         0.0447
     51 H18         5.5030   -0.8919    3.5600 H         1 <0>         0.1000
     52 H19         5.0475   -2.3521    4.4772 H         1 <0>         0.0873
     53 H20         8.7381   -2.6562    2.5150 H         1 <0>         0.1168
     54 H21         7.9282   -1.0843    2.3048 H         1 <0>         0.0880
     55 H22        13.2823   -5.0771    6.5720 H         1 <0>         0.1632
     56 H23        14.8178   -6.3102    8.4126 H         1 <0>         0.1588
     57 H24        13.2268   -7.1290   10.3255 H         1 <0>         0.2124
     58 H25         6.5001   -5.6200    8.0097 H         1 <0>         0.3779
     59 H26         5.9162   -2.7092    5.9630 H         1 <0>         0.4366
@<TRIPOS>BOND
     1    1    6 ar
     2    1    2 ar
     3    1   36 1
     4    2    3 ar
     5    2   37 1
     6    3    4 ar
     7    3   38 1
     8    4    5 ar
     9    4    7 1
    10    5    6 ar
    11    5   39 1
    12    6   40 1
    13    7    8 1
    14    8    9 1
    15    8   41 1
    16    8   42 1
    17    9   10 1
    18    9   16 1
    19    9   11 1
    20   11   12 1
    21   11   43 1
    22   11   44 1
    23   12   13 1
    24   12   45 1
    25   12   46 1
    26   13   14 1
    27   13   47 1
    28   13   48 1
    29   14   15 1
    30   14   20 1
    31   14   16 1
    32   16   17 1
    33   17   18 1
    34   17   49 1
    35   17   50 1
    36   18   19 1
    37   18   51 1
    38   18   52 1
    39   19   20 1
    40   19   21 1
    41   20   53 1
    42   20   54 1
    43   21   26 2
    44   21   22 1
    45   22   23 1
    46   22   59 1
    47   23   24 1
    48   23   35 2
    49   24   29 1
    50   24   25 1
    51   25   26 1
    52   25   27 2
    53   27   28 1
    54   28   29 2
    55   28   30 1
    56   30   34 1
    57   30   31 2
    58   31   32 1
    59   31   55 1
    60   32   33 2
    61   32   56 1
    62   33   34 1
    63   33   57 1
    64   35   58 1
