@<TRIPOS>MOLECULE
CHEMBL286947
   35    38     0     0     0
SMALL
USER_CHARGES

@<TRIPOS>ATOM
      1 C1         -0.0184    1.5028    0.0103 C.3       1 <0>        -0.0791
      2 C2          0.0021   -0.0041    0.0020 C.2       1 <0>         0.1659
      3 C3          0.0081   -0.8213   -1.1311 C.2       1 <0>        -0.3629
      4 C4         -0.0112   -0.5108   -2.5694 C.2       1 <0>         0.4736
      5 O1          0.1401    0.6147   -3.0099 O.2       1 <0>        -0.4497
      6 C5         -0.2325   -1.6988   -3.4341 C.ar      1 <0>        -0.2075
      7 C6         -0.4776   -1.5326   -4.7974 C.ar      1 <0>        -0.0329
      8 C7         -0.6855   -2.6374   -5.5933 C.ar      1 <0>        -0.1422
      9 C8         -0.6512   -3.9085   -5.0391 C.ar      1 <0>        -0.0579
     10 C9         -0.4088   -4.0844   -3.6952 C.ar      1 <0>        -0.1354
     11 C10        -0.1937   -2.9815   -2.8694 C.ar      1 <0>         0.1487
     12 O2          0.0501   -3.1942   -1.5536 O.3       1 <0>        -0.2079
     13 C11         0.0323   -2.1562   -0.6984 C.2       1 <0>         0.3275
     14 N1          0.0348   -2.1222    0.6428 N.pl3     1 <0>        -0.2883
     15 N2          0.0231   -0.7811    1.0551 N.2       1 <0>        -0.2711
     16 C12         0.0518   -3.2387    1.4898 C.ar      1 <0>         0.1795
     17 C13        -0.6183   -4.3992    1.1239 C.ar      1 <0>        -0.1770
     18 C14        -0.6023   -5.5003    1.9580 C.ar      1 <0>        -0.0479
     19 C15         0.0797   -5.4514    3.1587 C.ar      1 <0>        -0.1911
     20 C16         0.7516   -4.2935    3.5307 C.ar      1 <0>         0.2344
     21 C17         0.7426   -3.1878    2.6914 C.ar      1 <0>        -0.1801
     22 N3          1.4404   -4.2443    4.7447 N.pl3     1 <0>        -0.8716
     23 H1          1.0042    1.8801    0.0026 H         1 <0>         0.0903
     24 H2         -0.5455    1.8639   -0.8728 H         1 <0>         0.0918
     25 H3         -0.5286    1.8543    0.9071 H         1 <0>         0.0823
     26 H4         -0.5045   -0.5420   -5.2269 H         1 <0>         0.1458
     27 H5         -0.8756   -2.5138   -6.6492 H         1 <0>         0.1400
     28 H6         -0.8170   -4.7701   -5.6689 H         1 <0>         0.1434
     29 H7         -0.3851   -5.0806   -3.2789 H         1 <0>         0.1450
     30 H8         -1.1529   -4.4405    0.1864 H         1 <0>         0.1280
     31 H9         -1.1241   -6.4013    1.6710 H         1 <0>         0.1363
     32 H10         0.0901   -6.3137    3.8088 H         1 <0>         0.1302
     33 H11         1.2680   -2.2882    2.9759 H         1 <0>         0.1353
     34 H12         1.4499   -5.0187    5.3287 H         1 <0>         0.4030
     35 H13         1.9093   -3.4356    5.0039 H         1 <0>         0.4018
@<TRIPOS>BOND
     1    1    2 1
     2    1   23 1
     3    1   24 1
     4    1   25 1
     5    2   15 2
     6    2    3 1
     7    3   13 2
     8    3    4 1
     9    4    5 2
    10    4    6 1
    11    6   11 ar
    12    6    7 ar
    13    7    8 ar
    14    7   26 1
    15    8    9 ar
    16    8   27 1
    17    9   10 ar
    18    9   28 1
    19   10   11 ar
    20   10   29 1
    21   11   12 1
    22   12   13 1
    23   13   14 1
    24   14   15 1
    25   14   16 1
    26   16   21 ar
    27   16   17 ar
    28   17   18 ar
    29   17   30 1
    30   18   19 ar
    31   18   31 1
    32   19   20 ar
    33   19   32 1
    34   20   21 ar
    35   20   22 1
    36   21   33 1
    37   22   34 1
    38   22   35 1
