@<TRIPOS>MOLECULE
CHEMBL564224
   42    44     0     0     0
SMALL
USER_CHARGES

@<TRIPOS>ATOM
      1 C1         -0.0173    1.4248    0.0099 C.3       1 <0>         0.0276
      2 O1          0.0021   -0.0041    0.0020 O.3       1 <0>        -0.3167
      3 C2          0.6058   -0.6071   -1.0557 C.ar      1 <0>         0.1462
      4 C3          1.1731    0.1608   -2.0626 C.ar      1 <0>        -0.2077
      5 C4          1.7865   -0.4545   -3.1363 C.ar      1 <0>        -0.0735
      6 C5          1.8356   -1.8347   -3.2084 C.ar      1 <0>        -0.1557
      7 C6          1.2707   -2.6020   -2.2067 C.ar      1 <0>        -0.0655
      8 C7          0.6609   -1.9913   -1.1277 C.ar      1 <0>        -0.1099
      9 C8          0.0508   -2.8283   -0.0330 C.3       1 <0>        -0.0880
     10 C9         -1.4193   -3.0171   -0.3053 C.2       1 <0>         0.5125
     11 O2         -1.9221   -2.5210   -1.2910 O.2       1 <0>        -0.4412
     12 N1         -2.1753   -3.7375    0.5468 N.am      1 <0>        -0.6573
     13 C10        -3.5323   -3.9118    0.2956 C.ar      1 <0>         0.5152
     14 C11        -4.3222   -4.6490    1.1725 C.ar      1 <0>        -0.2381
     15 C12        -5.6799   -4.7965    0.8786 C.ar      1 <0>         0.3880
     16 N2         -6.1685   -4.2282   -0.2267 N.ar      1 <0>        -0.5592
     17 C13        -5.3828   -3.5349   -1.0346 C.ar      1 <0>         0.6264
     18 N3         -4.0922   -3.3715   -0.7828 N.ar      1 <0>        -0.5453
     19 N4         -5.9249   -2.9606   -2.1713 N.pl3     1 <0>        -0.7927
     20 C14        -6.5609   -5.5690    1.7758 C.2       1 <0>        -0.0381
     21 C15        -7.8677   -5.2971    2.0406 C.2       1 <0>        -0.1058
     22 C16        -8.3123   -6.2830    2.9415 C.2       1 <0>        -0.2238
     23 C17        -7.2668   -7.1004    3.1807 C.2       1 <0>         0.0128
     24 O3         -6.2129   -6.6697    2.4708 O.3       1 <0>        -0.1607
     25 N5         -3.7380   -5.2623    2.3867 N.pl3     1 <0>         0.0399
     26 O4         -3.7109   -4.6420    3.4240 O.2       1 <0>        -0.1351
     27 O5         -3.2881   -6.3835    2.3409 O.3       1 <0>        -0.1220
     28 H1          1.0053    1.8021    0.0021 H         1 <0>         0.0574
     29 H2         -0.5445    1.7859   -0.8732 H         1 <0>         0.0564
     30 H3         -0.5275    1.7763    0.9067 H         1 <0>         0.1008
     31 H4          1.1347    1.2387   -2.0069 H         1 <0>         0.1294
     32 H5          2.2279    0.1427   -3.9204 H         1 <0>         0.1263
     33 H6          2.3157   -2.3139   -4.0487 H         1 <0>         0.1264
     34 H7          1.3100   -3.6796   -2.2654 H         1 <0>         0.1289
     35 H8          0.5425   -3.8006   -0.0023 H         1 <0>         0.1118
     36 H9          0.1812   -2.3247    0.9248 H         1 <0>         0.1150
     37 H10        -1.7731   -4.1343    1.3353 H         1 <0>         0.4228
     38 H11        -6.8688   -3.0692   -2.3666 H         1 <0>         0.4238
     39 H12        -5.3608   -2.4497   -2.7727 H         1 <0>         0.4260
     40 H13        -8.4508   -4.4821    1.6378 H         1 <0>         0.1622
     41 H14        -9.3034   -6.3682    3.3622 H         1 <0>         0.1629
     42 H15        -7.2773   -7.9616    3.8324 H         1 <0>         0.2177
@<TRIPOS>BOND
     1    1    2 1
     2    1   28 1
     3    1   29 1
     4    1   30 1
     5    2    3 1
     6    3    8 ar
     7    3    4 ar
     8    4    5 ar
     9    4   31 1
    10    5    6 ar
    11    5   32 1
    12    6    7 ar
    13    6   33 1
    14    7    8 ar
    15    7   34 1
    16    8    9 1
    17    9   10 1
    18    9   35 1
    19    9   36 1
    20   10   11 2
    21   10   12 am
    22   12   13 1
    23   12   37 1
    24   13   18 ar
    25   13   14 ar
    26   14   15 ar
    27   14   25 1
    28   15   16 ar
    29   15   20 1
    30   16   17 ar
    31   17   18 ar
    32   17   19 1
    33   19   38 1
    34   19   39 1
    35   20   24 1
    36   20   21 2
    37   21   22 1
    38   21   40 1
    39   22   23 2
    40   22   41 1
    41   23   24 1
    42   23   42 1
    43   25   26 2
    44   25   27 1
