@<TRIPOS>MOLECULE
CHEMBL483261
   60    64     0     0     0
SMALL
USER_CHARGES

@<TRIPOS>ATOM
      1 C1         -0.0187    1.5258    0.0104 C.3       1 <0>        -0.1638
      2 C2          0.0021   -0.0041    0.0020 C.3       1 <0>         0.1135
      3 N1          0.6878   -0.4765   -1.2033 N.am      1 <0>        -0.5338
      4 C3         -0.0322   -0.6977   -2.3388 C.2       1 <0>         0.5566
      5 O1         -1.3604   -0.4841   -2.3545 O.3       1 <0>        -0.5921
      6 C4          0.6248   -1.1484   -3.4872 C.2       1 <0>        -0.1449
      7 C5          2.0224   -1.3618   -3.4346 C.2       1 <0>         0.2265
      8 N2          2.6929   -1.1176   -2.2481 N.am      1 <0>        -0.6082
      9 H1          3.6511   -1.2585   -2.1947 H         1 <0>         0.4219
     10 C6          2.0158   -0.6785   -1.1700 C.2       1 <0>         0.7119
     11 O2          2.6215   -0.4638   -0.1375 O.2       1 <0>        -0.5711
     12 N3          2.3876   -1.7798   -4.6321 N.2       1 <0>        -0.5279
     13 C7          1.3048   -1.8370   -5.4168 C.2       1 <0>         0.1464
     14 N4          0.2364   -1.4587   -4.7378 N.2       1 <0>        -0.4349
     15 C8          1.3045   -2.2612   -6.8372 C.ar      1 <0>         0.1081
     16 C9          0.1141   -2.2764   -7.5627 C.ar      1 <0>        -0.1270
     17 C10         0.1199   -2.6723   -8.8847 C.ar      1 <0>        -0.0213
     18 C11         1.3038   -3.0541   -9.4900 C.ar      1 <0>        -0.6983
     19 C12         2.4880   -3.0411   -8.7751 C.ar      1 <0>        -0.0231
     20 C13         2.4955   -2.6411   -7.4544 C.ar      1 <0>        -0.1271
     21 S1          1.3032   -3.5596  -11.1779 S.o2      1 <0>         2.6932
     22 O3          2.4441   -4.3881  -11.3542 O.2       1 <0>        -0.9603
     23 O4         -0.0145   -4.0057  -11.4678 O.2       1 <0>        -0.9598
     24 N5          1.5564   -2.2041  -12.0950 N.pl3     1 <0>        -1.0004
     25 C14         0.4261   -1.3891  -12.5655 C.3       1 <0>         0.1283
     26 C15         0.6923    0.0734  -12.1932 C.3       1 <0>         0.0382
     27 N6          2.0065    0.4759  -12.7115 N.3       1 <0>        -0.5282
     28 C16         3.0855   -0.3054  -12.0924 C.3       1 <0>         0.0321
     29 C17         2.9178   -1.7800  -12.4554 C.3       1 <0>         0.1289
     30 C18         2.2268    1.9164  -12.5264 C.3       1 <0>         0.0905
     31 C19         3.4619    2.3367  -13.2805 C.ar      1 <0>        -0.0709
     32 C20         4.6968    2.2977  -12.6604 C.ar      1 <0>        -0.1019
     33 C21         5.8300    2.6830  -13.3516 C.ar      1 <0>        -0.1100
     34 C22         5.7283    3.1080  -14.6643 C.ar      1 <0>        -0.0349
     35 C23         4.4921    3.1469  -15.2844 C.ar      1 <0>        -0.1117
     36 C24         3.3603    2.7559  -14.5940 C.ar      1 <0>        -0.0848
     37 Cl1         7.1510    3.5927  -15.5329 Cl        1 <0>        -0.0743
     38 H2          1.0039    1.9031    0.0027 H         1 <0>         0.0582
     39 H3         -0.5459    1.8868   -0.8726 H         1 <0>         0.0616
     40 H4         -0.5289    1.8773    0.9072 H         1 <0>         0.0710
     41 H5          0.5293   -0.3651    0.8851 H         1 <0>         0.0936
     42 H6         -1.0205   -0.3814    0.0098 H         1 <0>         0.0973
     43 H7         -0.8109   -1.9792   -7.0910 H         1 <0>         0.1399
     44 H8         -0.8016   -2.6845   -9.4477 H         1 <0>         0.1342
     45 H9          3.4092   -3.3405   -9.2528 H         1 <0>         0.1332
     46 H10         3.4214   -2.6267   -6.8986 H         1 <0>         0.1381
     47 H11         0.3342   -1.4805  -13.6478 H         1 <0>         0.0816
     48 H12        -0.4932   -1.7271  -12.0873 H         1 <0>         0.0949
     49 H13        -0.0803    0.7063  -12.6299 H         1 <0>         0.0889
     50 H14         0.6806    0.1805  -11.1085 H         1 <0>         0.0465
     51 H15         4.0487    0.0527  -12.4560 H         1 <0>         0.0907
     52 H16         3.0406   -0.1931  -11.0091 H         1 <0>         0.0451
     53 H17         3.6450   -2.3764  -11.9045 H         1 <0>         0.0937
     54 H18         3.0700   -1.9097  -13.5269 H         1 <0>         0.0805
     55 H19         1.3654    2.4672  -12.9042 H         1 <0>         0.0880
     56 H20         2.3582    2.1306  -11.4657 H         1 <0>         0.0490
     57 H21         4.7761    1.9663  -11.6356 H         1 <0>         0.1308
     58 H22         6.7947    2.6528  -12.8669 H         1 <0>         0.1330
     59 H23         4.4120    3.4788  -16.3090 H         1 <0>         0.1322
     60 H24         2.3959    2.7817  -15.0794 H         1 <0>         0.1329
@<TRIPOS>BOND
     1    1    2 1
     2    1   38 1
     3    1   39 1
     4    1   40 1
     5    2    3 1
     6    2   41 1
     7    2   42 1
     8    3   10 am
     9    3    4 1
    10    4    5 1
    11    4    6 2
    12    6   14 1
    13    6    7 1
    14    7    8 1
    15    7   12 2
    16    8    9 1
    17    8   10 am
    18   10   11 2
    19   12   13 1
    20   13   14 2
    21   13   15 1
    22   15   20 ar
    23   15   16 ar
    24   16   17 ar
    25   16   43 1
    26   17   18 ar
    27   17   44 1
    28   18   19 ar
    29   18   21 1
    30   19   20 ar
    31   19   45 1
    32   20   46 1
    33   21   22 2
    34   21   23 2
    35   21   24 1
    36   24   29 1
    37   24   25 1
    38   25   26 1
    39   25   47 1
    40   25   48 1
    41   26   27 1
    42   26   49 1
    43   26   50 1
    44   27   28 1
    45   27   30 1
    46   28   29 1
    47   28   51 1
    48   28   52 1
    49   29   53 1
    50   29   54 1
    51   30   31 1
    52   30   55 1
    53   30   56 1
    54   31   36 ar
    55   31   32 ar
    56   32   33 ar
    57   32   57 1
    58   33   34 ar
    59   33   58 1
    60   34   35 ar
    61   34   37 1
    62   35   36 ar
    63   35   59 1
    64   36   60 1
