@<TRIPOS>MOLECULE
CHEMBL573589
   43    47     0     0     0
SMALL
USER_CHARGES

@<TRIPOS>ATOM
      1 C1         -0.0178    1.4608    0.0101 C.3       1 <0>         0.1046
      2 N1          0.0021   -0.0041    0.0020 N.pl3     1 <0>        -0.3626
      3 C2          0.0075   -0.7717   -1.1020 C.2       1 <0>         0.1361
      4 C3          0.0276   -2.0824   -0.7014 C.2       1 <0>        -0.2785
      5 C4          0.0346   -2.0767    0.7706 C.2       1 <0>         0.3218
      6 N2          0.0244   -0.8155    1.1424 N.2       1 <0>        -0.3011
      7 N3          0.0538   -3.2666    1.4226 N.2       1 <0>        -0.4892
      8 C5          0.0662   -4.4070    0.7797 C.2       1 <0>         0.6213
      9 N4          0.0615   -4.5084   -0.5900 N.pl3     1 <0>        -0.3293
     10 C6          0.0425   -3.3871   -1.3750 C.2       1 <0>         0.3800
     11 N5          0.0414   -3.7702   -2.6321 N.2       1 <0>        -0.5320
     12 C7          0.0594   -5.1086   -2.6950 C.2       1 <0>         0.2818
     13 N6          0.0729   -5.5996   -1.4712 N.2       1 <0>        -0.2451
     14 C8          0.0638   -5.9074   -3.9383 C.2       1 <0>         0.0779
     15 C9          0.0766   -7.2647   -4.0145 C.2       1 <0>        -0.1591
     16 C10         0.0762   -7.5943   -5.3844 C.2       1 <0>        -0.2149
     17 C11         0.0634   -6.4341   -6.0696 C.2       1 <0>        -0.0314
     18 O1          0.0500   -5.4171   -5.1929 O.3       1 <0>        -0.1576
     19 N7          0.0853   -5.5538    1.5079 N.2       1 <0>        -0.6178
     20 C12         0.0908   -5.4988    2.8112 C.2       1 <0>         0.4273
     21 O2          0.0776   -4.3062    3.4344 O.3       1 <0>        -0.6180
     22 C13         0.1119   -6.7709    3.6189 C.3       1 <0>         0.0984
     23 O3          0.1229   -7.8951    2.7368 O.3       1 <0>        -0.2779
     24 C14         0.1424   -9.1278    3.3086 C.ar      1 <0>         0.1399
     25 C15         0.1449   -9.2529    4.6903 C.ar      1 <0>        -0.2183
     26 C16         0.1642  -10.5071    5.2691 C.ar      1 <0>        -0.0815
     27 C17         0.1815  -11.6372    4.4727 C.ar      1 <0>        -0.1732
     28 C18         0.1795  -11.5152    3.0954 C.ar      1 <0>        -0.0831
     29 C19         0.1540  -10.2634    2.5117 C.ar      1 <0>        -0.1545
     30 H1          1.0048    1.8381    0.0023 H         1 <0>         0.0754
     31 H2         -0.5450    1.8219   -0.8730 H         1 <0>         0.0874
     32 H3         -0.5280    1.8123    0.9069 H         1 <0>         0.0915
     33 H4         -0.0027   -0.4184   -2.1225 H         1 <0>         0.1851
     34 H5          0.0858   -7.9566   -3.1853 H         1 <0>         0.1598
     35 H6          0.0849   -8.5888   -5.8056 H         1 <0>         0.1530
     36 H7          0.0597   -6.3381   -7.1453 H         1 <0>         0.2063
     37 H8          1.0052   -6.7901    4.2432 H         1 <0>         0.0791
     38 H9         -0.7745   -6.8143    4.2517 H         1 <0>         0.0791
     39 H10         0.1321   -8.3705    5.3129 H         1 <0>         0.1276
     40 H11         0.1662  -10.6050    6.3447 H         1 <0>         0.1193
     41 H12         0.1969  -12.6168    4.9271 H         1 <0>         0.1171
     42 H13         0.1934  -12.3994    2.4754 H         1 <0>         0.1239
     43 H14         0.1479  -10.1687    1.4359 H         1 <0>         0.1316
@<TRIPOS>BOND
     1    1    2 1
     2    1   30 1
     3    1   31 1
     4    1   32 1
     5    2    6 1
     6    2    3 1
     7    3    4 2
     8    3   33 1
     9    4   10 1
    10    4    5 1
    11    5    6 2
    12    5    7 1
    13    7    8 2
    14    8    9 1
    15    8   19 1
    16    9   13 1
    17    9   10 1
    18   10   11 2
    19   11   12 1
    20   12   13 2
    21   12   14 1
    22   14   18 1
    23   14   15 2
    24   15   16 1
    25   15   34 1
    26   16   17 2
    27   16   35 1
    28   17   18 1
    29   17   36 1
    30   19   20 2
    31   20   21 1
    32   20   22 1
    33   22   23 1
    34   22   37 1
    35   22   38 1
    36   23   24 1
    37   24   29 ar
    38   24   25 ar
    39   25   26 ar
    40   25   39 1
    41   26   27 ar
    42   26   40 1
    43   27   28 ar
    44   27   41 1
    45   28   29 ar
    46   28   42 1
    47   29   43 1
