@<TRIPOS>MOLECULE
CHEMBL1082005
   41    44     0     0     0
SMALL
USER_CHARGES

@<TRIPOS>ATOM
      1 C1         -0.0156    1.5043    0.0156 C.3       1 <0>        -0.0768
      2 C2          0.0046   -0.0026    0.0060 C.2       1 <0>         0.0080
      3 C3         -1.0805   -0.8031    0.0047 C.2       1 <0>        -0.2184
      4 C4         -0.6140   -2.1312   -0.0053 C.2       1 <0>        -0.1351
      5 C5          0.7461   -2.0687   -0.0097 C.2       1 <0>         0.0047
      6 O1          1.1056   -0.7700   -0.0086 O.3       1 <0>        -0.1577
      7 C6          1.6654   -3.2213   -0.0196 C.ar      1 <0>         0.2565
      8 C7          2.8831   -3.1384   -0.7187 C.ar      1 <0>        -0.1232
      9 C8          3.7408   -4.2414   -0.7160 C.ar      1 <0>        -0.0252
     10 C9          3.3563   -5.3743   -0.0235 C.ar      1 <0>        -0.2009
     11 C10         2.1363   -5.3870    0.6469 C.ar      1 <0>         0.3763
     12 N1          1.3413   -4.3302    0.6365 N.ar      1 <0>        -0.4588
     13 N2          1.7494   -6.5286    1.3445 N.am      1 <0>        -0.6575
     14 C11         0.6207   -6.5183    2.0809 C.2       1 <0>         0.5324
     15 O2         -0.1060   -5.5475    2.0632 O.2       1 <0>        -0.4639
     16 C12         0.2616   -7.7130    2.9263 C.3       1 <0>        -0.1990
     17 C13        -0.9555   -8.5379    2.5030 C.3       1 <0>        -0.1505
     18 C14        -1.0324   -7.6399    3.7393 C.3       1 <0>        -0.1438
     19 C15         3.2501   -1.9020   -1.4463 C.ar      1 <0>         0.0104
     20 C16         2.3512   -1.2940   -2.3296 C.ar      1 <0>        -0.1452
     21 C17         2.7338   -0.1432   -2.9862 C.ar      1 <0>         0.1032
     22 N3          3.9278    0.3835   -2.7904 N.ar      1 <0>        -0.4831
     23 C18         4.8051   -0.1578   -1.9665 C.ar      1 <0>         0.1012
     24 C19         4.5030   -1.3062   -1.2652 C.ar      1 <0>        -0.1594
     25 H1          1.0071    1.8814    0.0093 H         1 <0>         0.0756
     26 H2         -0.5418    1.8662   -0.8677 H         1 <0>         0.0892
     27 H3         -0.5267    1.8551    0.9121 H         1 <0>         0.0884
     28 H4         -2.1127   -0.4853    0.0107 H         1 <0>         0.1526
     29 H5         -1.2180   -3.0264   -0.0088 H         1 <0>         0.1538
     30 H6          4.6827   -4.2096   -1.2434 H         1 <0>         0.1478
     31 H7          3.9975   -6.2432   -0.0031 H         1 <0>         0.1460
     32 H8          2.2924   -7.3312    1.3003 H         1 <0>         0.4214
     33 H9          1.1034   -8.2471    3.3671 H         1 <0>         0.1277
     34 H10        -1.4965   -8.2164    1.6130 H         1 <0>         0.1007
     35 H11        -0.9145   -9.6150    2.6651 H         1 <0>         0.1079
     36 H12        -1.0421   -8.1262    4.7148 H         1 <0>         0.1067
     37 H13        -1.6240   -6.7276    3.6627 H         1 <0>         0.1097
     38 H14         1.3725   -1.7198   -2.4949 H         1 <0>         0.1298
     39 H15         2.0471    0.3332   -3.6702 H         1 <0>         0.1558
     40 H16         5.7711    0.3072   -1.8365 H         1 <0>         0.1576
     41 H17         5.2243   -1.7414   -0.5893 H         1 <0>         0.1350
@<TRIPOS>BOND
     1    1    2 1
     2    1   25 1
     3    1   26 1
     4    1   27 1
     5    2    6 1
     6    2    3 2
     7    3    4 1
     8    3   28 1
     9    4    5 2
    10    4   29 1
    11    5    6 1
    12    5    7 1
    13    7   12 ar
    14    7    8 ar
    15    8    9 ar
    16    8   19 1
    17    9   10 ar
    18    9   30 1
    19   10   11 ar
    20   10   31 1
    21   11   12 ar
    22   11   13 1
    23   13   14 am
    24   13   32 1
    25   14   15 2
    26   14   16 1
    27   16   18 1
    28   16   17 1
    29   16   33 1
    30   17   18 1
    31   17   34 1
    32   17   35 1
    33   18   36 1
    34   18   37 1
    35   19   24 ar
    36   19   20 ar
    37   20   21 ar
    38   20   38 1
    39   21   22 ar
    40   21   39 1
    41   22   23 ar
    42   23   24 ar
    43   23   40 1
    44   24   41 1
