@<TRIPOS>MOLECULE
CHEMBL596308
   37    39     0     0     0
SMALL
USER_CHARGES

@<TRIPOS>ATOM
      1 C1         -0.0184    1.5028    0.0103 C.3       1 <0>        -0.0805
      2 C2          0.0021   -0.0041    0.0020 C.2       1 <0>         0.0235
      3 C3         -1.0833   -0.8051    0.0027 C.2       1 <0>        -0.2237
      4 C4         -0.6166   -2.1325   -0.0067 C.2       1 <0>        -0.1203
      5 C5          0.7434   -2.0699   -0.0126 C.2       1 <0>        -0.0091
      6 O1          1.1027   -0.7711   -0.0131 O.3       1 <0>        -0.1605
      7 C6          1.6633   -3.2227   -0.0231 C.ar      1 <0>         0.3071
      8 C7          3.0525   -3.0257   -0.0227 C.ar      1 <0>        -0.2148
      9 C8          3.8770   -4.1456   -0.0329 C.ar      1 <0>         0.1821
     10 N1          3.3236   -5.3582   -0.0426 N.ar      1 <0>        -0.5536
     11 C9          2.0090   -5.5063   -0.0428 C.ar      1 <0>         0.5814
     12 N2          1.1880   -4.4674   -0.0277 N.ar      1 <0>        -0.5453
     13 N3          1.4763   -6.7842   -0.0536 N.pl3     1 <0>        -0.8160
     14 C10         5.3533   -3.9925   -0.0333 C.2       1 <0>         0.5733
     15 O2          5.8490   -2.8835   -0.0248 O.2       1 <0>        -0.5166
     16 N4          6.1439   -5.0840   -0.0433 N.am      1 <0>        -0.7052
     17 C11         7.6011   -4.9329   -0.0437 C.3       1 <0>         0.1892
     18 C12         8.2473   -6.2943   -0.0557 C.2       1 <0>        -0.0167
     19 C13         8.6682   -6.9791    1.0270 C.2       1 <0>        -0.1663
     20 C14         9.2077   -8.1983    0.5714 C.2       1 <0>        -0.2038
     21 C15         9.0958   -8.2121   -0.7724 C.2       1 <0>         0.0008
     22 N5          8.5017   -7.0486   -1.1626 N.pl3     1 <0>        -0.5521
     23 H1          8.2964   -6.7978   -2.0768 H         1 <0>         0.4146
     24 H2          1.0042    1.8801    0.0026 H         1 <0>         0.0805
     25 H3         -0.5455    1.8639   -0.8728 H         1 <0>         0.0918
     26 H4         -0.5286    1.8543    0.9071 H         1 <0>         0.0920
     27 H5         -2.1155   -0.4875    0.0092 H         1 <0>         0.1571
     28 H6         -1.2205   -3.0279   -0.0082 H         1 <0>         0.1605
     29 H7          3.4707   -2.0300   -0.0150 H         1 <0>         0.1623
     30 H8          2.0651   -7.5550   -0.0609 H         1 <0>         0.4180
     31 H9          0.5143   -6.9087   -0.0538 H         1 <0>         0.4180
     32 H10         5.7481   -5.9695   -0.0501 H         1 <0>         0.4145
     33 H11         7.9085   -4.3771   -0.9295 H         1 <0>         0.0784
     34 H12         7.9106   -4.3917    0.8504 H         1 <0>         0.0960
     35 H13         8.6040   -6.6528    2.0545 H         1 <0>         0.1380
     36 H14         9.6330   -8.9784    1.1855 H         1 <0>         0.1384
     37 H15         9.4174   -9.0092   -1.4264 H         1 <0>         0.1668
@<TRIPOS>BOND
     1    1    2 1
     2    1   24 1
     3    1   25 1
     4    1   26 1
     5    2    6 1
     6    2    3 2
     7    3    4 1
     8    3   27 1
     9    4    5 2
    10    4   28 1
    11    5    6 1
    12    5    7 1
    13    7   12 ar
    14    7    8 ar
    15    8    9 ar
    16    8   29 1
    17    9   10 ar
    18    9   14 1
    19   10   11 ar
    20   11   12 ar
    21   11   13 1
    22   13   30 1
    23   13   31 1
    24   14   15 2
    25   14   16 am
    26   16   17 1
    27   16   32 1
    28   17   18 1
    29   17   33 1
    30   17   34 1
    31   18   22 1
    32   18   19 2
    33   19   20 1
    34   19   35 1
    35   20   21 2
    36   20   36 1
    37   21   22 1
    38   21   37 1
    39   22   23 1
