@<TRIPOS>MOLECULE
CHEMBL596014
   52    56     0     0     0
SMALL
USER_CHARGES

@<TRIPOS>ATOM
      1 C1         -0.0167    1.3778    0.0096 C.ar      1 <0>        -0.1157
      2 C2          1.1711    2.0855    0.0021 C.ar      1 <0>        -0.0791
      3 C3          2.3775    1.4112   -0.0130 C.ar      1 <0>        -0.1087
      4 C4          2.3969    0.0289   -0.0206 C.ar      1 <0>        -0.0642
      5 C5          1.2092   -0.6791   -0.0130 C.ar      1 <0>        -0.1025
      6 C6          0.0021   -0.0041    0.0020 C.ar      1 <0>        -0.0757
      7 I1          1.2381   -2.7739   -0.0252 I         1 <0>        -0.0378
      8 C7          3.6719    2.1829   -0.0217 C.3       1 <0>         0.1708
      9 N1          4.1048    2.4260    1.3566 N.pl3     1 <0>        -0.6918
     10 C8          5.2759    3.1215    1.6016 C.ar      1 <0>         0.5055
     11 C9          5.7094    3.3589    2.9173 C.ar      1 <0>        -0.1070
     12 C10         6.9063    4.0708    3.1030 C.ar      1 <0>         0.3053
     13 N2          7.5803    4.4904    2.0370 N.ar      1 <0>        -0.5316
     14 C11         7.1360    4.2445    0.8227 C.ar      1 <0>         0.3620
     15 N3          6.0195    3.5756    0.5983 N.ar      1 <0>        -0.5869
     16 N4          7.0880    4.1576    4.4600 N.pl3     1 <0>        -0.4634
     17 C12         6.0391    3.5216    5.0544 C.2       1 <0>         0.2620
     18 N5          5.2314    3.0537    4.1475 N.2       1 <0>        -0.4548
     19 C13         8.2049    4.8133    5.1448 C.3       1 <0>         0.1870
     20 H1          7.9132    5.1374    6.1438 H         1 <0>         0.1503
     21 C14         9.4421    3.8892    5.2000 C.3       1 <0>         0.1013
     22 H2          9.3312    3.1138    4.4420 H         1 <0>         0.0844
     23 C15        10.7608    4.6109    4.9668 C.3       1 <0>         0.0870
     24 H3         11.2530    4.1655    4.1022 H         1 <0>         0.0987
     25 C16        10.6083    6.1286    4.7199 C.3       1 <0>        -0.1158
     26 H4         10.7532    6.6920    5.6417 H         1 <0>         0.1310
     27 S1          8.8542    6.2273    4.1516 S.3       1 <0>        -0.1390
     28 C17        11.5544    6.6004    3.6460 C.2       1 <0>         0.5385
     29 O1         11.8146    5.8783    2.7069 O.2       1 <0>        -0.5067
     30 N6         12.1114    7.8249    3.7290 N.am      1 <0>        -0.6934
     31 C18        13.0311    8.2836    2.6850 C.3       1 <0>         0.0751
     32 C19        14.3082    8.9976    3.1324 C.3       1 <0>        -0.1899
     33 C20        13.1742    9.7934    2.4831 C.3       1 <0>        -0.1856
     34 O2         11.5938    4.4201    6.1122 O.3       1 <0>        -0.5493
     35 O3          9.4884    3.2654    6.4848 O.3       1 <0>        -0.5415
     36 H5         -0.9591    1.9049    0.0259 H         1 <0>         0.1347
     37 H6          1.1562    3.1653    0.0076 H         1 <0>         0.1318
     38 H7          3.3396   -0.4980   -0.0327 H         1 <0>         0.1313
     39 H8         -0.9257   -0.5568    0.0082 H         1 <0>         0.1315
     40 H9          4.4347    1.6071   -0.5459 H         1 <0>         0.0818
     41 H10         3.5233    3.1359   -0.5294 H         1 <0>         0.0834
     42 H11         3.5705    2.0995    2.0975 H         1 <0>         0.4188
     43 H12         7.7077    4.5998   -0.0219 H         1 <0>         0.2038
     44 H13         5.8989    3.4209    6.1205 H         1 <0>         0.2254
     45 H14        11.9033    8.4024    4.4800 H         1 <0>         0.4044
     46 H15        13.0921    7.6495    1.8005 H         1 <0>         0.1411
     47 H16        14.4641    9.1261    4.2035 H         1 <0>         0.0984
     48 H17        15.2097    8.8333    2.5423 H         1 <0>         0.1055
     49 H18        13.3297   10.1527    1.4658 H         1 <0>         0.1070
     50 H19        12.5840   10.4455    3.1270 H         1 <0>         0.0991
     51 H20        12.4577    4.8495    6.0461 H         1 <0>         0.3891
     52 H21        10.2379    2.6661    6.6042 H         1 <0>         0.3940
@<TRIPOS>BOND
     1    1    6 ar
     2    1    2 ar
     3    1   36 1
     4    2    3 ar
     5    2   37 1
     6    3    4 ar
     7    3    8 1
     8    4    5 ar
     9    4   38 1
    10    5    6 ar
    11    5    7 1
    12    6   39 1
    13    8    9 1
    14    8   40 1
    15    8   41 1
    16    9   10 1
    17    9   42 1
    18   10   15 ar
    19   10   11 ar
    20   11   18 1
    21   11   12 ar
    22   12   13 ar
    23   12   16 1
    24   13   14 ar
    25   14   15 ar
    26   14   43 1
    27   16   17 1
    28   16   19 1
    29   17   18 2
    30   17   44 1
    31   19   20 1
    32   19   27 1
    33   19   21 1
    34   21   22 1
    35   21   23 1
    36   21   35 1
    37   23   24 1
    38   23   25 1
    39   23   34 1
    40   25   26 1
    41   25   27 1
    42   25   28 1
    43   28   29 2
    44   28   30 am
    45   30   31 1
    46   30   45 1
    47   31   33 1
    48   31   32 1
    49   31   46 1
    50   32   33 1
    51   32   47 1
    52   32   48 1
    53   33   49 1
    54   33   50 1
    55   34   51 1
    56   35   52 1
