@<TRIPOS>MOLECULE
CHEMBL178435
   37    40     0     0     0
SMALL
USER_CHARGES

@<TRIPOS>ATOM
      1 C1         -0.0184    1.5028    0.0103 C.3       1 <0>        -0.1157
      2 C2          0.0021   -0.0041    0.0020 C.ar      1 <0>        -0.0925
      3 C3          0.0057   -0.6864   -1.2015 C.ar      1 <0>        -0.0932
      4 C4          0.0245   -2.0697   -1.2144 C.ar      1 <0>        -0.1021
      5 C5          0.0395   -2.7714   -0.0278 C.ar      1 <0>        -0.0716
      6 C6          0.0365   -2.0938    1.1894 C.ar      1 <0>        -0.0667
      7 C7          0.0228   -0.6971    1.1941 C.ar      1 <0>        -0.0654
      8 C8          0.0554   -3.0746    2.2998 C.ar      1 <0>         0.2592
      9 C9          0.0702   -4.3674    1.7759 C.ar      1 <0>        -0.2513
     10 C10         0.0887   -5.4423    2.6396 C.ar      1 <0>         0.2399
     11 N1          0.0919   -5.2164    3.9458 N.ar      1 <0>        -0.5449
     12 C11         0.0776   -3.9794    4.4208 C.ar      1 <0>         0.5739
     13 N2          0.0604   -2.9227    3.6234 N.ar      1 <0>        -0.5579
     14 N3          0.0815   -3.7863    5.7914 N.pl3     1 <0>        -0.8190
     15 C12         0.1046   -6.8519    2.1068 C.3       1 <0>         0.1273
     16 C13         1.4976   -7.4941    2.3260 C.3       1 <0>        -0.1416
     17 C14         1.1281   -9.0024    2.3397 C.3       1 <0>        -0.1465
     18 C15        -0.2661   -8.9922    3.0027 C.3       1 <0>         0.1217
     19 O1         -0.8090   -7.6756    2.8486 O.3       1 <0>        -0.3321
     20 Br1        -1.4346  -10.3031    2.1189 Br        1 <0>        -0.1546
     21 C16         0.0611   -4.2505    0.2741 C.3       1 <0>        -0.0268
     22 H1          1.0042    1.8801    0.0026 H         1 <0>         0.0731
     23 H2         -0.5455    1.8639   -0.8728 H         1 <0>         0.0698
     24 H3         -0.5286    1.8543    0.9071 H         1 <0>         0.0686
     25 H4         -0.0064   -0.1385   -2.1321 H         1 <0>         0.1320
     26 H5          0.0269   -2.6005   -2.1550 H         1 <0>         0.1320
     27 H6          0.0243   -0.1601    2.1311 H         1 <0>         0.1295
     28 H7          0.0946   -4.5504    6.3888 H         1 <0>         0.4166
     29 H8          0.0712   -2.8869    6.1545 H         1 <0>         0.4156
     30 H9         -0.1543   -6.8585    1.0480 H         1 <0>         0.1029
     31 H10         2.1713   -7.2621    1.5011 H         1 <0>         0.0976
     32 H11         1.9266   -7.1860    3.2795 H         1 <0>         0.0916
     33 H12         1.0723   -9.3974    1.3253 H         1 <0>         0.0967
     34 H13         1.8388   -9.5705    2.9398 H         1 <0>         0.1022
     35 H14        -0.1736   -9.2323    4.0619 H         1 <0>         0.1244
     36 H15        -0.8285   -4.7300   -0.1344 H         1 <0>         0.1043
     37 H16         0.9591   -4.7058   -0.1434 H         1 <0>         0.1031
@<TRIPOS>BOND
     1    1    2 1
     2    1   22 1
     3    1   23 1
     4    1   24 1
     5    2    7 ar
     6    2    3 ar
     7    3    4 ar
     8    3   25 1
     9    4    5 ar
    10    4   26 1
    11    5   21 1
    12    5    6 ar
    13    6    7 ar
    14    6    8 1
    15    7   27 1
    16    8   13 ar
    17    8    9 ar
    18    9   10 ar
    19    9   21 1
    20   10   11 ar
    21   10   15 1
    22   11   12 ar
    23   12   13 ar
    24   12   14 1
    25   14   28 1
    26   14   29 1
    27   15   19 1
    28   15   16 1
    29   15   30 1
    30   16   17 1
    31   16   31 1
    32   16   32 1
    33   17   18 1
    34   17   33 1
    35   17   34 1
    36   18   19 1
    37   18   20 1
    38   18   35 1
    39   21   36 1
    40   21   37 1
