@<TRIPOS>MOLECULE
CHEMBL476310
   28    30     0     0     0
SMALL
USER_CHARGES

@<TRIPOS>ATOM
      1 C1         -0.0162    1.3446    0.0094 C.2       1 <0>        -0.2154
      2 C2          1.3234    1.7758   -0.0010 C.2       1 <0>        -0.1583
      3 C3          2.0961    0.6543   -0.0144 C.2       1 <0>        -0.0098
      4 O1          1.2788   -0.4172   -0.0124 O.3       1 <0>        -0.1617
      5 C4          0.0021   -0.0041    0.0020 C.2       1 <0>        -0.0172
      6 C5          3.5696    0.6187   -0.0291 C.ar      1 <0>         0.1314
      7 C6          4.2960    1.3801   -0.9460 C.ar      1 <0>        -0.1993
      8 C7          5.6880    1.3203   -0.9284 C.ar      1 <0>         0.3047
      9 N1          6.3327    0.5505   -0.0535 N.ar      1 <0>        -0.5292
     10 C8          5.6918   -0.1889    0.8345 C.ar      1 <0>         0.4705
     11 C9          4.2869   -0.1843    0.8904 C.ar      1 <0>        -0.1436
     12 C10         3.5936   -0.9818    1.8568 C.1       1 <0>         0.2558
     13 N2          3.0436   -1.6144    2.6234 N.1       1 <0>        -0.4037
     14 N3          6.4105   -0.9714    1.7215 N.pl3     1 <0>        -0.8323
     15 C11         6.4604    2.1224   -1.8953 C.2       1 <0>        -0.1429
     16 C12         7.8196    2.2087   -2.0561 C.2       1 <0>        -0.0934
     17 C13         8.3182    3.0331   -3.0378 C.2       1 <0>        -0.1683
     18 C14         7.4526    3.7350   -3.8164 C.2       1 <0>        -0.1547
     19 S1          5.8691    3.2280   -3.1665 S.3       1 <0>         0.0880
     20 H1         -0.8933    1.9746    0.0252 H         1 <0>         0.1567
     21 H2          1.6714    2.7982    0.0011 H         1 <0>         0.1577
     22 H3         -0.8669   -0.6454    0.0074 H         1 <0>         0.2090
     23 H4          3.7851    2.0081   -1.6609 H         1 <0>         0.1500
     24 H5          7.3799   -0.9752    1.6895 H         1 <0>         0.4146
     25 H6          5.9447   -1.5160    2.3753 H         1 <0>         0.4129
     26 H7          8.4858    1.6406   -1.4238 H         1 <0>         0.1452
     27 H8          9.3840    3.1220   -3.1880 H         1 <0>         0.1409
     28 H9          7.6675    4.4200   -4.6233 H         1 <0>         0.1923
@<TRIPOS>BOND
     1    1    5 2
     2    1    2 1
     3    1   20 1
     4    2    3 2
     5    2   21 1
     6    3    4 1
     7    3    6 1
     8    4    5 1
     9    5   22 1
    10    6   11 ar
    11    6    7 ar
    12    7    8 ar
    13    7   23 1
    14    8    9 ar
    15    8   15 1
    16    9   10 ar
    17   10   11 ar
    18   10   14 1
    19   11   12 1
    20   12   13 3
    21   14   24 1
    22   14   25 1
    23   15   19 1
    24   15   16 2
    25   16   17 1
    26   16   26 1
    27   17   18 2
    28   17   27 1
    29   18   19 1
    30   18   28 1
