@<TRIPOS>MOLECULE
CHEMBL255739
   62    65     0     0     0
SMALL
USER_CHARGES

@<TRIPOS>ATOM
      1 C1         -0.0174    1.5029    0.0163 C.3       1 <0>        -0.0823
      2 C2          0.0028   -0.0040    0.0067 C.2       1 <0>         0.0281
      3 C3         -1.0824   -0.8047    0.0055 C.2       1 <0>        -0.2291
      4 C4         -0.6156   -2.1325   -0.0046 C.2       1 <0>        -0.1147
      5 C5          0.7438   -2.0698   -0.0090 C.2       1 <0>         0.0123
      6 O1          1.1033   -0.7711   -0.0079 O.3       1 <0>        -0.1496
      7 C6          1.6639   -3.2233   -0.0197 C.ar      1 <0>         0.4596
      8 N1          1.1612   -4.4528   -0.0311 N.ar      1 <0>        -0.5069
      9 C7          1.9607   -5.5134   -0.0409 C.ar      1 <0>         0.4335
     10 C8          3.3411   -5.3227   -0.0390 C.ar      1 <0>        -0.2589
     11 C9          3.8312   -4.0210   -0.0269 C.ar      1 <0>         0.4572
     12 N2          2.9741   -3.0063   -0.0230 N.ar      1 <0>        -0.5424
     13 N3          5.2072   -3.7839   -0.0245 N.pl3     1 <0>        -0.3364
     14 C10         5.8270   -2.6608   -0.4732 C.2       1 <0>         0.1155
     15 C11         7.1571   -2.8288   -0.2951 C.2       1 <0>        -0.2571
     16 C12         7.3603   -4.0894    0.2785 C.2       1 <0>         0.1068
     17 N4          6.1949   -4.6588    0.4463 N.2       1 <0>        -0.2864
     18 C13         8.6944   -4.6863    0.6461 C.3       1 <0>        -0.0779
     19 C14         5.1541   -1.4481   -1.0627 C.3       1 <0>        -0.0887
     20 N5          1.4270   -6.7978   -0.0524 N.am      1 <0>        -0.6519
     21 C15         0.0948   -6.9750    0.0491 C.2       1 <0>         0.5111
     22 O2         -0.6457   -6.0146    0.0576 O.2       1 <0>        -0.4589
     23 C16        -0.4747   -8.3664    0.1520 C.3       1 <0>        -0.1126
     24 C17        -1.9762   -8.2884    0.2539 C.ar      1 <0>        -0.0309
     25 C18        -2.5809   -8.1930    1.4934 C.ar      1 <0>        -0.0982
     26 C19        -3.9582   -8.1215    1.5868 C.ar      1 <0>        -0.0922
     27 C20        -4.7308   -8.1449    0.4408 C.ar      1 <0>        -0.1613
     28 C21        -4.1262   -8.2394   -0.7987 C.ar      1 <0>        -0.0895
     29 C22        -2.7486   -8.3067   -0.8924 C.ar      1 <0>        -0.0976
     30 C23        -6.2324   -8.0679    0.5427 C.3       1 <0>         0.0439
     31 N6         -6.6544   -6.6614    0.5032 N.4       1 <0>        -0.3863
     32 C24        -8.1216   -6.5908    0.4818 C.3       1 <0>        -0.0474
     33 C25        -6.1479   -5.9645    1.6930 C.3       1 <0>        -0.0535
     34 H1          1.0052    1.8801    0.0100 H         1 <0>         0.0816
     35 H2         -0.5437    1.8648   -0.8670 H         1 <0>         0.0927
     36 H3         -0.5285    1.8536    0.9129 H         1 <0>         0.0924
     37 H4         -2.1146   -0.4871    0.0115 H         1 <0>         0.1554
     38 H5         -1.2194   -3.0278   -0.0078 H         1 <0>         0.1618
     39 H6          4.0152   -6.1665   -0.0464 H         1 <0>         0.1629
     40 H7          7.9270   -2.1159   -0.5509 H         1 <0>         0.1614
     41 H8          8.9433   -4.4154    1.6721 H         1 <0>         0.0850
     42 H9          8.6432   -5.7716    0.5591 H         1 <0>         0.0779
     43 H10         9.4615   -4.3036   -0.0271 H         1 <0>         0.0859
     44 H11         4.9184   -0.7408   -0.2675 H         1 <0>         0.0889
     45 H12         5.8224   -0.9758   -1.7828 H         1 <0>         0.0852
     46 H13         4.2348   -1.7505   -1.5642 H         1 <0>         0.0771
     47 H14         2.0136   -7.5661   -0.1335 H         1 <0>         0.4274
     48 H15        -0.1999   -8.9380   -0.7345 H         1 <0>         0.1176
     49 H16        -0.0753   -8.8577    1.0393 H         1 <0>         0.1180
     50 H17        -1.9772   -8.1747    2.3887 H         1 <0>         0.1341
     51 H18        -4.4306   -8.0476    2.5552 H         1 <0>         0.1320
     52 H19        -4.7298   -8.2581   -1.6940 H         1 <0>         0.1324
     53 H20        -2.2760   -8.3768   -1.8609 H         1 <0>         0.1344
     54 H21        -6.6813   -8.6056   -0.2924 H         1 <0>         0.1364
     55 H22        -6.5565   -8.5182    1.4810 H         1 <0>         0.1351
     56 H23        -8.5212   -7.0649    1.3782 H         1 <0>         0.1221
     57 H24        -8.4347   -5.5471    0.4525 H         1 <0>         0.1246
     58 H25        -8.4974   -7.1079   -0.4010 H         1 <0>         0.1233
     59 H26        -5.0593   -6.0169    1.7089 H         1 <0>         0.1247
     60 H27        -6.4610   -4.9209    1.6637 H         1 <0>         0.1241
     61 H28        -6.5476   -6.4387    2.5894 H         1 <0>         0.1215
     62 H29        -6.2845   -6.2225   -0.3266 H         1 <0>         0.4268
@<TRIPOS>BOND
     1    1    2 1
     2    1   34 1
     3    1   35 1
     4    1   36 1
     5    2    6 1
     6    2    3 2
     7    3    4 1
     8    3   37 1
     9    4    5 2
    10    4   38 1
    11    5    6 1
    12    5    7 1
    13    7   12 ar
    14    7    8 ar
    15    8    9 ar
    16    9   10 ar
    17    9   20 1
    18   10   11 ar
    19   10   39 1
    20   11   12 ar
    21   11   13 1
    22   13   17 1
    23   13   14 1
    24   14   15 2
    25   14   19 1
    26   15   16 1
    27   15   40 1
    28   16   17 2
    29   16   18 1
    30   18   41 1
    31   18   42 1
    32   18   43 1
    33   19   44 1
    34   19   45 1
    35   19   46 1
    36   20   21 am
    37   20   47 1
    38   21   22 2
    39   21   23 1
    40   23   24 1
    41   23   48 1
    42   23   49 1
    43   24   29 ar
    44   24   25 ar
    45   25   26 ar
    46   25   50 1
    47   26   27 ar
    48   26   51 1
    49   27   28 ar
    50   27   30 1
    51   28   29 ar
    52   28   52 1
    53   29   53 1
    54   30   31 1
    55   30   54 1
    56   30   55 1
    57   31   32 1
    58   31   33 1
    59   31   62 1
    60   32   56 1
    61   32   57 1
    62   32   58 1
    63   33   59 1
    64   33   60 1
    65   33   61 1
