@<TRIPOS>MOLECULE
CHEMBL260719
   26    29     0     0     0
SMALL
USER_CHARGES

@<TRIPOS>ATOM
      1 C1         -0.0170    1.4020    0.0098 C.2       1 <0>        -0.1607
      2 C2          1.1371    2.0950    0.0025 C.2       1 <0>        -0.1158
      3 S1          2.3761    0.8100   -0.0163 S.3       1 <0>         0.1492
      4 C3          1.2898   -0.5904   -0.0135 C.ar      1 <0>        -0.2280
      5 C4          0.0021   -0.0041    0.0020 C.ar      1 <0>         0.1797
      6 N1         -1.0358   -0.8732    0.0069 N.ar      1 <0>        -0.4837
      7 C5         -0.8436   -2.1679   -0.0023 C.ar      1 <0>         0.3631
      8 N2          0.3496   -2.7304   -0.0168 N.ar      1 <0>        -0.4834
      9 C6          1.4486   -1.9678   -0.0228 C.ar      1 <0>         0.3200
     10 C7          2.7940   -2.5762   -0.0393 C.2       1 <0>         0.1111
     11 N3          3.9833   -1.9890   -0.0416 N.2       1 <0>        -0.4688
     12 C8          5.0893   -2.6906   -0.0574 C.2       1 <0>         0.0234
     13 C9          5.0292   -4.0512   -0.0717 C.2       1 <0>        -0.1897
     14 S2          3.2585   -4.3028   -0.0535 S.3       1 <0>         0.0997
     15 C10        -2.0534   -3.0665    0.0045 C.3       1 <0>        -0.1060
     16 C11        -3.4225   -2.4095   -0.1819 C.3       1 <0>        -0.1504
     17 C12        -3.0135   -2.9496    1.1900 C.3       1 <0>        -0.1530
     18 H1         -0.9604    1.9275    0.0261 H         1 <0>         0.1538
     19 H2          1.2787    3.1657    0.0066 H         1 <0>         0.2054
     20 H3          6.0469   -2.1912   -0.0593 H         1 <0>         0.1772
     21 H4          5.8289   -4.7769   -0.0854 H         1 <0>         0.2066
     22 H5         -1.9065   -4.0560   -0.4285 H         1 <0>         0.1336
     23 H6         -3.4482   -1.3272   -0.3094 H         1 <0>         0.1104
     24 H7         -4.1766   -2.9666   -0.7377 H         1 <0>         0.1035
     25 H8         -3.4986   -3.8621    1.5366 H         1 <0>         0.1060
     26 H9         -2.7702   -2.2228    1.9649 H         1 <0>         0.0964
@<TRIPOS>BOND
     1    1    5 1
     2    1    2 2
     3    1   18 1
     4    2    3 1
     5    2   19 1
     6    3    4 1
     7    4    9 ar
     8    4    5 ar
     9    5    6 ar
    10    6    7 ar
    11    7    8 ar
    12    7   15 1
    13    8    9 ar
    14    9   10 1
    15   10   14 1
    16   10   11 2
    17   11   12 1
    18   12   13 2
    19   12   20 1
    20   13   14 1
    21   13   21 1
    22   15   17 1
    23   15   16 1
    24   15   22 1
    25   16   17 1
    26   16   23 1
    27   16   24 1
    28   17   25 1
    29   17   26 1
