@<TRIPOS>MOLECULE
CHEMBL259736
   33    35     0     0     0
SMALL
USER_CHARGES

@<TRIPOS>ATOM
      1 C1         -0.0167    1.3792    0.0096 C.ar      1 <0>        -0.0935
      2 C2          1.1685    2.0928    0.0021 C.ar      1 <0>        -0.1257
      3 C3          2.3774    1.4278   -0.0130 C.ar      1 <0>        -0.0640
      4 C4          2.4029    0.0333   -0.0207 C.ar      1 <0>        -0.0738
      5 C5          1.2046   -0.6805   -0.0131 C.ar      1 <0>        -0.0868
      6 C6          0.0021   -0.0041    0.0020 C.ar      1 <0>        -0.1199
      7 C7          3.6971   -0.6866   -0.0375 C.ar      1 <0>         0.3245
      8 C8          3.8456   -1.9116    0.6464 C.ar      1 <0>        -0.1912
      9 C9          5.1019   -2.5514    0.5948 C.ar      1 <0>         0.3245
     10 N1          6.0862   -1.9783   -0.0907 N.ar      1 <0>        -0.5637
     11 C10         5.9006   -0.8262   -0.7180 C.ar      1 <0>         0.5982
     12 N2          4.7371   -0.1924   -0.7017 N.ar      1 <0>        -0.5637
     13 N3          6.9537   -0.2699   -1.4172 N.pl3     1 <0>        -0.8059
     14 C11         5.3205   -3.8393    1.2928 C.ar      1 <0>        -0.0737
     15 C12         4.6808   -4.0960    2.5053 C.ar      1 <0>        -0.0868
     16 C13         4.8882   -5.2979    3.1506 C.ar      1 <0>        -0.1199
     17 C14         5.7288   -6.2472    2.5974 C.ar      1 <0>        -0.0936
     18 C15         6.3665   -5.9983    1.3951 C.ar      1 <0>        -0.1256
     19 C16         6.1623   -4.8027    0.7373 C.ar      1 <0>        -0.0641
     20 C17         2.7538   -2.4881    1.3718 C.1       1 <0>         0.2710
     21 N4          1.8877   -2.9455    1.9472 N.1       1 <0>        -0.4065
     22 H1         -0.9604    1.9042    0.0260 H         1 <0>         0.1292
     23 H2          1.1475    3.1726    0.0078 H         1 <0>         0.1314
     24 H3          3.3020    1.9860   -0.0192 H         1 <0>         0.1340
     25 H4          1.2180   -1.7604   -0.0194 H         1 <0>         0.1248
     26 H5         -0.9264   -0.5556    0.0083 H         1 <0>         0.1304
     27 H6          7.8114   -0.7222   -1.4432 H         1 <0>         0.4202
     28 H7          6.8357    0.5731   -1.8823 H         1 <0>         0.4202
     29 H8          4.0249   -3.3554    2.9385 H         1 <0>         0.1248
     30 H9          4.3934   -5.4978    4.0895 H         1 <0>         0.1304
     31 H10         5.8882   -7.1864    3.1063 H         1 <0>         0.1292
     32 H11         7.0221   -6.7430    0.9686 H         1 <0>         0.1314
     33 H12         6.6572   -4.6113   -0.2034 H         1 <0>         0.1340
@<TRIPOS>BOND
     1    1    6 ar
     2    1    2 ar
     3    1   22 1
     4    2    3 ar
     5    2   23 1
     6    3    4 ar
     7    3   24 1
     8    4    5 ar
     9    4    7 1
    10    5    6 ar
    11    5   25 1
    12    6   26 1
    13    7   12 ar
    14    7    8 ar
    15    8    9 ar
    16    8   20 1
    17    9   10 ar
    18    9   14 1
    19   10   11 ar
    20   11   12 ar
    21   11   13 1
    22   13   27 1
    23   13   28 1
    24   14   19 ar
    25   14   15 ar
    26   15   16 ar
    27   15   29 1
    28   16   17 ar
    29   16   30 1
    30   17   18 ar
    31   17   31 1
    32   18   19 ar
    33   18   32 1
    34   19   33 1
    35   20   21 3
