@<TRIPOS>MOLECULE
CHEMBL460799
   31    34     0     0     0
SMALL
USER_CHARGES

@<TRIPOS>ATOM
      1 C1         -0.0162    1.3451    0.0094 C.2       1 <0>        -0.2248
      2 C2          1.3225    1.7763   -0.0010 C.2       1 <0>        -0.1225
      3 C3          2.0959    0.6543   -0.0144 C.2       1 <0>        -0.0079
      4 O1          1.2782   -0.4173   -0.0124 O.3       1 <0>        -0.1489
      5 C4          0.0021   -0.0041    0.0020 C.2       1 <0>         0.0013
      6 C5          3.5677    0.6188   -0.0291 C.ar      1 <0>         0.4092
      7 C6          4.2734   -0.4010    0.6510 C.ar      1 <0>        -0.1550
      8 C7          5.6790   -0.3802    0.5989 C.ar      1 <0>         0.3634
      9 N1          6.2899    0.5856   -0.0804 N.ar      1 <0>        -0.5785
     10 C8          5.5905    1.5202   -0.7032 C.ar      1 <0>         0.6227
     11 N2          4.2647    1.5429   -0.6876 N.ar      1 <0>        -0.5498
     12 N3          6.2669    2.5076   -1.3991 N.pl3     1 <0>        -0.8023
     13 N4          6.0998   -1.4584    1.3276 N.pl3     1 <0>        -0.3851
     14 N5          4.9441   -2.0995    1.7988 N.2       1 <0>         0.0039
     15 N6          3.9043   -1.4608    1.3883 N.2       1 <0>        -0.1657
     16 C9          7.4865   -1.8648    1.5687 C.3       1 <0>         0.2255
     17 C10         7.9940   -1.2001    2.8224 C.2       1 <0>        -0.1953
     18 C11         7.9476   -1.6437    4.1024 C.2       1 <0>        -0.1165
     19 C12         8.4830   -0.8564    5.1045 C.2       1 <0>        -0.1659
     20 C13         9.0385    0.3360    4.7776 C.2       1 <0>        -0.1613
     21 S1          8.8194    0.3722    3.0062 S.3       1 <0>         0.0676
     22 H1         -0.8933    1.9750    0.0252 H         1 <0>         0.1585
     23 H2          1.6703    2.7988    0.0008 H         1 <0>         0.1594
     24 H3         -0.8670   -0.6452    0.0072 H         1 <0>         0.2134
     25 H4          7.2366    2.5058   -1.4240 H         1 <0>         0.4210
     26 H5          5.7711    3.2012   -1.8618 H         1 <0>         0.4222
     27 H6          7.5325   -2.9473    1.6872 H         1 <0>         0.1280
     28 H7          8.1052   -1.5653    0.7227 H         1 <0>         0.1178
     29 H8          7.4988   -2.5979    4.3358 H         1 <0>         0.1387
     30 H9          8.4586   -1.1863    6.1326 H         1 <0>         0.1382
     31 H10         9.4982    1.0714    5.4212 H         1 <0>         0.1888
@<TRIPOS>BOND
     1    1    5 2
     2    1    2 1
     3    1   22 1
     4    2    3 2
     5    2   23 1
     6    3    4 1
     7    3    6 1
     8    4    5 1
     9    5   24 1
    10    6   11 ar
    11    6    7 ar
    12    7   15 1
    13    7    8 ar
    14    8    9 ar
    15    8   13 1
    16    9   10 ar
    17   10   11 ar
    18   10   12 1
    19   12   25 1
    20   12   26 1
    21   13   14 1
    22   13   16 1
    23   14   15 2
    24   16   17 1
    25   16   27 1
    26   16   28 1
    27   17   21 1
    28   17   18 2
    29   18   19 1
    30   18   29 1
    31   19   20 2
    32   19   30 1
    33   20   21 1
    34   20   31 1
