@<TRIPOS>MOLECULE
CHEMBL383568
   48    52     0     0     0
SMALL
USER_CHARGES

@<TRIPOS>ATOM
      1 C1          0.0327    1.1783   -0.7882 C.2       1 <0>        -0.2194
      2 C2          1.3699    1.6213   -0.7593 C.2       1 <0>        -0.1074
      3 C3          2.1343    0.5395   -0.4540 C.2       1 <0>         0.0043
      4 O1          1.3180   -0.5210   -0.3007 O.3       1 <0>        -0.1536
      5 C4          0.0468   -0.1384   -0.5020 C.2       1 <0>         0.0210
      6 C5          3.6057    0.5287   -0.3144 C.2       1 <0>         0.3619
      7 N1          4.3457   -0.5418   -0.0192 N.2       1 <0>        -0.4408
      8 C6          5.6217   -0.2016    0.0275 C.2       1 <0>         0.2139
      9 C7          6.8545   -0.9386    0.2987 C.cat     1 <0>         0.5699
     10 N2          8.0039   -0.2937    0.2699 N.pl3     1 <0>        -0.4980
     11 C8          8.0533    1.0198   -0.0028 C.2       1 <0>         0.1227
     12 C9          6.9269    1.7391   -0.2602 C.2       1 <0>         0.1083
     13 N3          5.7071    1.1362   -0.2474 N.pl3     1 <0>        -0.2567
     14 N4          4.3979    1.5785   -0.4681 N.2       1 <0>        -0.2244
     15 C10         9.3676    1.7042   -0.0234 C.ar      1 <0>        -0.0537
     16 C11         9.4381    3.0704   -0.2992 C.ar      1 <0>        -0.0845
     17 C12        10.6583    3.7069   -0.3187 C.ar      1 <0>        -0.0490
     18 C13        11.8267    2.9848   -0.0617 C.ar      1 <0>        -0.0913
     19 C14        11.7550    1.6169    0.2148 C.ar      1 <0>        -0.0776
     20 C15        10.5334    0.9832    0.2386 C.ar      1 <0>        -0.1083
     21 C16        13.1365    3.6667   -0.0827 C.2       1 <0>         0.5539
     22 O2         13.2429    4.7926    0.3633 O.2       1 <0>        -0.5142
     23 N5         14.2139    3.0408   -0.5965 N.am      1 <0>        -0.6083
     24 C17        14.0854    1.7344   -1.2615 C.3       1 <0>         0.0612
     25 C18        14.7849    1.8141   -2.6232 C.3       1 <0>         0.0450
     26 O3         16.1149    2.3058   -2.4411 O.3       1 <0>        -0.3739
     27 C19        16.1812    3.6306   -1.9079 C.3       1 <0>         0.0459
     28 C20        15.5524    3.6465   -0.5145 C.3       1 <0>         0.0748
     29 N6          6.8156   -2.2947    0.5822 N.pl3     1 <0>        -0.7489
     30 H1         -0.8391    1.7810   -0.9959 H         1 <0>         0.1676
     31 H2          1.7199    2.6262   -0.9441 H         1 <0>         0.1659
     32 H3         -0.8204   -0.7795   -0.4439 H         1 <0>         0.2223
     33 H4          7.0017    2.7947   -0.4760 H         1 <0>         0.2208
     34 H5          8.5350    3.6284   -0.4978 H         1 <0>         0.1472
     35 H6         10.7127    4.7641   -0.5328 H         1 <0>         0.1534
     36 H7         12.6574    1.0579    0.4136 H         1 <0>         0.1494
     37 H8         10.4774   -0.0732    0.4560 H         1 <0>         0.1291
     38 H9         14.5567    0.9639   -0.6512 H         1 <0>         0.0859
     39 H10        13.0312    1.4969   -1.4036 H         1 <0>         0.0981
     40 H11        14.8219    0.8216   -3.0722 H         1 <0>         0.1108
     41 H12        14.2332    2.4898   -3.2768 H         1 <0>         0.0586
     42 H13        17.2229    3.9449   -1.8423 H         1 <0>         0.1149
     43 H14        15.6347    4.3129   -2.5590 H         1 <0>         0.0595
     44 H15        15.4692    4.6747   -0.1623 H         1 <0>         0.1081
     45 H16        16.1740    3.0719    0.1722 H         1 <0>         0.0845
     46 H17         5.9657   -2.7618    0.6018 H         1 <0>         0.4578
     47 H18         7.6382   -2.7766    0.7611 H         1 <0>         0.4398
     48 H19         8.8265   -0.7756    0.4488 H         1 <0>         0.4531
@<TRIPOS>BOND
     1    1    5 2
     2    1    2 1
     3    1   30 1
     4    2    3 2
     5    2   31 1
     6    3    4 1
     7    3    6 1
     8    4    5 1
     9    5   32 1
    10    6   14 2
    11    6    7 1
    12    7    8 2
    13    8   13 1
    14    8    9 1
    15    9   10 2
    16    9   29 1
    17   10   11 1
    18   10   48 1
    19   11   12 2
    20   11   15 1
    21   12   13 1
    22   12   33 1
    23   13   14 1
    24   15   20 ar
    25   15   16 ar
    26   16   17 ar
    27   16   34 1
    28   17   18 ar
    29   17   35 1
    30   18   19 ar
    31   18   21 1
    32   19   20 ar
    33   19   36 1
    34   20   37 1
    35   21   22 2
    36   21   23 am
    37   23   28 1
    38   23   24 1
    39   24   25 1
    40   24   38 1
    41   24   39 1
    42   25   26 1
    43   25   40 1
    44   25   41 1
    45   26   27 1
    46   27   28 1
    47   27   42 1
    48   27   43 1
    49   28   44 1
    50   28   45 1
    51   29   46 1
    52   29   47 1
