@<TRIPOS>MOLECULE
CHEMBL608966
   59    62     0     0     0
SMALL
USER_CHARGES

@<TRIPOS>ATOM
      1 C1         -0.0164    1.3601    0.0095 C.2       1 <0>         0.2491
      2 N1          1.2003    1.8207    0.0004 N.2       1 <0>        -0.4505
      3 C2          2.0748    0.7851   -0.0135 C.ar      1 <0>        -0.1452
      4 C3          3.4767    0.6778   -0.0279 C.ar      1 <0>         0.5382
      5 N2          4.0210   -0.5334   -0.0400 N.ar      1 <0>        -0.5917
      6 C4          3.2657   -1.6250   -0.0386 C.ar      1 <0>         0.6503
      7 N3          1.9437   -1.5691   -0.0253 N.ar      1 <0>        -0.5995
      8 C5          1.3165   -0.3973   -0.0126 C.ar      1 <0>         0.3562
      9 N4          0.0021   -0.0041    0.0020 N.pl3     1 <0>        -0.4734
     10 C6         -1.1669   -0.8870    0.0089 C.3       1 <0>         0.3155
     11 C7         -1.5541   -1.2554    1.4583 C.3       1 <0>         0.0792
     12 H1         -1.1953   -0.4969    2.1540 H         1 <0>         0.0861
     13 C8         -3.0988   -1.2844    1.4384 C.3       1 <0>         0.0470
     14 H2         -3.5037   -0.5402    2.1242 H         1 <0>         0.0870
     15 C9         -3.4622   -0.9301   -0.0207 C.3       1 <0>         0.0505
     16 H3         -3.6137   -1.8377   -0.6051 H         1 <0>         0.0992
     17 O1         -2.3213   -0.1969   -0.5174 O.3       1 <0>        -0.3462
     18 C10        -4.7178   -0.0568   -0.0599 C.3       1 <0>         0.0822
     19 O2         -5.1032    0.1626   -1.4183 O.3       1 <0>        -0.5634
     20 O3         -3.5795   -2.5874    1.7747 O.3       1 <0>        -0.5394
     21 O4         -1.0309   -2.5390    1.8055 O.3       1 <0>        -0.5268
     22 N5          3.8829   -2.8658   -0.0520 N.pl3     1 <0>        -0.5483
     23 N6          5.2811   -2.9525   -0.0667 N.2       1 <0>        -0.2105
     24 C11         5.8512   -4.0986   -0.0791 C.2       1 <0>         0.0598
     25 C12         7.3552   -4.1919   -0.0949 C.3       1 <0>        -0.0657
     26 C13         7.8249   -5.0561    1.0770 C.3       1 <0>        -0.1099
     27 C14         9.3519   -5.1508    1.0610 C.3       1 <0>        -0.0862
     28 C15         9.8035   -5.8950   -0.1973 C.3       1 <0>        -0.1172
     29 C16        11.3305   -5.9898   -0.2133 C.3       1 <0>        -0.1213
     30 C17        11.8075   -6.7484    1.0268 C.3       1 <0>        -0.1209
     31 C18        11.3559   -6.0042    2.2850 C.3       1 <0>        -0.1207
     32 C19         9.8289   -5.9095    2.3011 C.3       1 <0>        -0.1147
     33 N7          4.2721    1.8100   -0.0299 N.pl3     1 <0>        -0.8141
     34 H4         -0.9091    1.9678    0.0254 H         1 <0>         0.2210
     35 H5         -0.9653   -1.7869   -0.5722 H         1 <0>         0.1211
     36 H6         -5.5266   -0.5593    0.4706 H         1 <0>         0.0665
     37 H7         -4.5096    0.9006    0.4179 H         1 <0>         0.0613
     38 H8         -5.8940    0.7099   -1.5193 H         1 <0>         0.3866
     39 H9         -4.5436   -2.6624    1.7773 H         1 <0>         0.3870
     40 H10        -1.2444   -2.8204    2.7057 H         1 <0>         0.3898
     41 H11         3.3468   -3.6742   -0.0513 H         1 <0>         0.4022
     42 H12         5.2543   -4.9987   -0.0783 H         1 <0>         0.1077
     43 H13         7.6815   -4.6425   -1.0323 H         1 <0>         0.0898
     44 H14         7.7822   -3.1932   -0.0039 H         1 <0>         0.0843
     45 H15         7.4987   -4.6055    2.0144 H         1 <0>         0.0660
     46 H16         7.3980   -6.0549    0.9860 H         1 <0>         0.0666
     47 H17         9.7782   -4.1476    1.0624 H         1 <0>         0.0727
     48 H18         9.3773   -6.8982   -0.1987 H         1 <0>         0.0621
     49 H19         9.4637   -5.3546   -1.0807 H         1 <0>         0.0649
     50 H20        11.6523   -6.5200   -1.1097 H         1 <0>         0.0603
     51 H21        11.7568   -4.9866   -0.2118 H         1 <0>         0.0612
     52 H22        11.3812   -7.7516    1.0253 H         1 <0>         0.0605
     53 H23        12.8954   -6.8159    1.0154 H         1 <0>         0.0592
     54 H24        11.6957   -6.5447    3.1685 H         1 <0>         0.0600
     55 H25        11.7822   -5.0010    2.2865 H         1 <0>         0.0611
     56 H26         9.5072   -5.3793    3.1974 H         1 <0>         0.0611
     57 H27         9.4026   -6.9126    2.2996 H         1 <0>         0.0616
     58 H28         3.8636    2.6897   -0.0213 H         1 <0>         0.4200
     59 H29         5.2382    1.7240   -0.0398 H         1 <0>         0.4110
@<TRIPOS>BOND
     1    1    9 1
     2    1    2 2
     3    1   34 1
     4    2    3 1
     5    3    8 ar
     6    3    4 ar
     7    4    5 ar
     8    4   33 1
     9    5    6 ar
    10    6    7 ar
    11    6   22 1
    12    7    8 ar
    13    8    9 1
    14    9   10 1
    15   10   17 1
    16   10   11 1
    17   10   35 1
    18   11   12 1
    19   11   13 1
    20   11   21 1
    21   13   14 1
    22   13   15 1
    23   13   20 1
    24   15   16 1
    25   15   17 1
    26   15   18 1
    27   18   19 1
    28   18   36 1
    29   18   37 1
    30   19   38 1
    31   20   39 1
    32   21   40 1
    33   22   23 1
    34   22   41 1
    35   23   24 2
    36   24   25 1
    37   24   42 1
    38   25   26 1
    39   25   43 1
    40   25   44 1
    41   26   27 1
    42   26   45 1
    43   26   46 1
    44   27   32 1
    45   27   28 1
    46   27   47 1
    47   28   29 1
    48   28   48 1
    49   28   49 1
    50   29   30 1
    51   29   50 1
    52   29   51 1
    53   30   31 1
    54   30   52 1
    55   30   53 1
    56   31   32 1
    57   31   54 1
    58   31   55 1
    59   32   56 1
    60   32   57 1
    61   33   58 1
    62   33   59 1
