@<TRIPOS>MOLECULE
CHEMBL466035
   58    61     0     0     0
SMALL
USER_CHARGES

@<TRIPOS>ATOM
      1 C1         -0.0187    1.5258    0.0104 C.3       1 <0>        -0.1488
      2 C2          0.0021   -0.0041    0.0020 C.3       1 <0>        -0.1412
      3 C3          0.7421   -0.5109    1.2415 C.3       1 <0>         0.1190
      4 N1          0.7619   -1.9757    1.2335 N.am      1 <0>        -0.5194
      5 C4         -0.2673   -2.6876    1.8359 C.2       1 <0>         0.1504
      6 C5         -1.4313   -2.3152    2.5139 C.2       1 <0>        -0.1923
      7 C6         -2.0780   -3.4571    2.8938 C.2       1 <0>         0.1445
      8 N2         -1.3522   -4.5363    2.4732 N.pl3     1 <0>        -0.5013
      9 H1         -1.5879   -5.4668    2.6126 H         1 <0>         0.4300
     10 C7         -0.2289   -4.0795    1.8169 C.2       1 <0>        -0.1011
     11 C8          0.8600   -4.7214    1.1843 C.2       1 <0>         0.5865
     12 O1          0.9218   -5.9375    1.1508 O.2       1 <0>        -0.5158
     13 N3          1.8293   -3.9749    0.6179 N.am      1 <0>        -0.5483
     14 C9          1.7753   -2.6322    0.6371 C.2       1 <0>         0.7004
     15 O2          2.6665   -1.9948    0.1096 O.2       1 <0>        -0.5372
     16 C10         2.9580   -4.6397   -0.0379 C.3       1 <0>         0.1131
     17 C11         2.6250   -4.8742   -1.5127 C.3       1 <0>        -0.1371
     18 C12         3.8038   -5.5685   -2.1976 C.3       1 <0>        -0.1473
     19 C13        -3.3538   -3.5159    3.6385 C.ar      1 <0>        -0.0181
     20 C14        -4.0042   -2.3378    4.0087 C.ar      1 <0>        -0.0920
     21 C15        -5.1947   -2.3997    4.7031 C.ar      1 <0>        -0.0836
     22 C16        -5.7439   -3.6261    5.0326 C.ar      1 <0>        -0.0934
     23 C17        -5.1041   -4.7977    4.6690 C.ar      1 <0>        -0.0825
     24 C18        -3.9160   -4.7499    3.9694 C.ar      1 <0>        -0.1132
     25 C19        -7.0447   -3.6861    5.7912 C.3       1 <0>         0.1247
     26 O3         -8.1343   -3.7138    4.8671 O.3       1 <0>        -0.3465
     27 C20        -9.3752   -3.7681    5.3866 C.2       1 <0>         0.6652
     28 O4         -9.5288   -3.7912    6.5917 O.2       1 <0>        -0.5369
     29 N4        -10.4470   -3.7967    4.5700 N.am      1 <0>        -0.6102
     30 C21       -11.7327   -3.8529    5.1083 C.2       1 <0>         0.3432
     31 C22       -12.0584   -3.8793    6.4830 C.2       1 <0>        -0.2857
     32 C23       -13.3975   -3.9326    6.5937 C.2       1 <0>         0.0585
     33 O5        -13.9198   -3.9407    5.3572 O.3       1 <0>        -0.0654
     34 N5        -12.8510   -3.8848    4.4298 N.2       1 <0>        -0.3445
     35 H2          1.0039    1.9031    0.0027 H         1 <0>         0.0594
     36 H3         -0.5459    1.8868   -0.8726 H         1 <0>         0.0611
     37 H4         -0.5289    1.8773    0.9072 H         1 <0>         0.0579
     38 H5         -1.0205   -0.3814    0.0098 H         1 <0>         0.0681
     39 H6          0.5123   -0.3556   -0.8948 H         1 <0>         0.0696
     40 H7          1.7647   -0.1336    1.2338 H         1 <0>         0.1002
     41 H8          0.2319   -0.1594    2.1383 H         1 <0>         0.0928
     42 H9         -1.7609   -1.3044    2.7037 H         1 <0>         0.1598
     43 H10         3.8448   -4.0105    0.0387 H         1 <0>         0.1020
     44 H11         3.1484   -5.5966    0.4481 H         1 <0>         0.1003
     45 H12         1.7383   -5.5034   -1.5894 H         1 <0>         0.0666
     46 H13         2.4346   -3.9173   -1.9988 H         1 <0>         0.0686
     47 H14         3.5665   -5.7355   -3.2483 H         1 <0>         0.0612
     48 H15         4.6905   -4.9393   -2.1210 H         1 <0>         0.0596
     49 H16         3.9942   -6.5254   -1.7116 H         1 <0>         0.0587
     50 H17        -3.5763   -1.3798    3.7525 H         1 <0>         0.1380
     51 H18        -5.6988   -1.4888    4.9905 H         1 <0>         0.1351
     52 H19        -5.5377   -5.7518    4.9298 H         1 <0>         0.1328
     53 H20        -3.4198   -5.6651    3.6822 H         1 <0>         0.1251
     54 H21        -7.0660   -4.5864    6.4052 H         1 <0>         0.0865
     55 H22        -7.1330   -2.8079    6.4309 H         1 <0>         0.0874
     56 H23       -10.3243   -3.7782    3.6080 H         1 <0>         0.4307
     57 H24       -11.3546   -3.8603    7.3019 H         1 <0>         0.1854
     58 H25       -13.9560   -3.9639    7.5175 H         1 <0>         0.2196
@<TRIPOS>BOND
     1    1    2 1
     2    1   35 1
     3    1   36 1
     4    1   37 1
     5    2    3 1
     6    2   38 1
     7    2   39 1
     8    3    4 1
     9    3   40 1
    10    3   41 1
    11    4   14 am
    12    4    5 1
    13    5   10 2
    14    5    6 1
    15    6    7 2
    16    6   42 1
    17    7    8 1
    18    7   19 1
    19    8    9 1
    20    8   10 1
    21   10   11 1
    22   11   12 2
    23   11   13 am
    24   13   14 am
    25   13   16 1
    26   14   15 2
    27   16   17 1
    28   16   43 1
    29   16   44 1
    30   17   18 1
    31   17   45 1
    32   17   46 1
    33   18   47 1
    34   18   48 1
    35   18   49 1
    36   19   24 ar
    37   19   20 ar
    38   20   21 ar
    39   20   50 1
    40   21   22 ar
    41   21   51 1
    42   22   23 ar
    43   22   25 1
    44   23   24 ar
    45   23   52 1
    46   24   53 1
    47   25   26 1
    48   25   54 1
    49   25   55 1
    50   26   27 1
    51   27   28 2
    52   27   29 am
    53   29   30 1
    54   29   56 1
    55   30   34 2
    56   30   31 1
    57   31   32 2
    58   31   57 1
    59   32   33 1
    60   32   58 1
    61   33   34 1
