@<TRIPOS>MOLECULE
CHEMBL187586
   48    52     0     0     0
SMALL
USER_CHARGES

@<TRIPOS>ATOM
      1 C1         -0.0162    1.3433    0.0094 C.2       1 <0>        -0.2194
      2 C2          1.3252    1.7744   -0.0011 C.2       1 <0>        -0.1216
      3 C3          2.0963    0.6547   -0.0144 C.2       1 <0>         0.0282
      4 O1          1.2798   -0.4167   -0.0124 O.3       1 <0>        -0.1601
      5 C4          0.0021   -0.0041    0.0020 C.2       1 <0>         0.0001
      6 C5          3.5735    0.6192   -0.0292 C.2       1 <0>         0.3437
      7 N1          4.3782    1.6975   -0.0257 N.2       1 <0>        -0.4810
      8 C6          5.6284    1.3133   -0.0438 C.2       1 <0>         0.4986
      9 N2          6.7827    2.0136   -0.0426 N.2       1 <0>        -0.5248
     10 C7          7.9149    1.3544   -0.2245 C.2       1 <0>         0.6710
     11 N3          7.9251    0.0030   -0.4737 N.pl3     1 <0>        -0.6593
     12 C8          6.8335   -0.7612   -0.0614 C.2       1 <0>         0.6280
     13 N4          5.6350   -0.0666   -0.0535 N.pl3     1 <0>        -0.4283
     14 N5          4.3125   -0.4776   -0.0421 N.2       1 <0>        -0.2725
     15 N6          6.9320   -2.0133    0.2840 N.2       1 <0>        -0.6665
     16 N7          9.1029    2.0335   -0.1638 N.pl3     1 <0>        -0.5977
     17 C9         10.3831    1.3378   -0.3667 C.3       1 <0>         0.0915
     18 C10        11.1969    2.1123   -1.4087 C.3       1 <0>        -0.0242
     19 N8         11.3283    3.5118   -0.9842 N.4       1 <0>        -0.3833
     20 C11        10.0075    4.1527   -0.9585 C.3       1 <0>        -0.0368
     21 C12         9.1344    3.4804    0.1002 C.3       1 <0>         0.1078
     22 C13        12.1997    4.2275   -1.9258 C.3       1 <0>         0.0329
     23 C14        12.4350    5.6296   -1.4260 C.ar      1 <0>        -0.0984
     24 C15        11.5846    6.6646   -1.7871 C.ar      1 <0>        -0.0726
     25 C16        11.8324    7.9385   -1.3082 C.ar      1 <0>         0.1414
     26 N9         12.8618    8.1740   -0.5186 N.ar      1 <0>        -0.4214
     27 C17        13.6908    7.2154   -0.1546 C.ar      1 <0>         0.1413
     28 C18        13.5039    5.9154   -0.5890 C.ar      1 <0>        -0.0664
     29 Cl1        14.5970    4.6590   -0.0987 Cl        1 <0>        -0.0157
     30 Cl2        10.2273    6.3649   -2.8271 Cl        1 <0>        -0.0142
     31 H1         -0.8931    1.9736    0.0252 H         1 <0>         0.1617
     32 H2          1.6735    2.7967    0.0011 H         1 <0>         0.1633
     33 H3         -0.8667   -0.6456    0.0069 H         1 <0>         0.2158
     34 H4          6.1427   -2.5028    0.5637 H         1 <0>         0.3852
     35 H5         10.9329    1.3007    0.5737 H         1 <0>         0.1182
     36 H6         10.1970    0.3256   -0.7258 H         1 <0>         0.1289
     37 H7         12.1871    1.6661   -1.5014 H         1 <0>         0.1575
     38 H8         10.6879    2.0708   -2.3716 H         1 <0>         0.1442
     39 H9         10.1212    5.2101   -0.7195 H         1 <0>         0.1452
     40 H10         9.5344    4.0495   -1.9351 H         1 <0>         0.1441
     41 H11         8.1232    3.8840    0.0496 H         1 <0>         0.1577
     42 H12         9.5560    3.6633    1.0886 H         1 <0>         0.1085
     43 H13        13.1533    3.7057   -2.0067 H         1 <0>         0.1553
     44 H14        11.7224    4.2661   -2.9049 H         1 <0>         0.1535
     45 H15        11.1752    8.7497   -1.5846 H         1 <0>         0.1901
     46 H16        14.5232    7.4472    0.4932 H         1 <0>         0.1896
     47 H17         8.6760   -0.4109   -0.9272 H         1 <0>         0.4355
     48 H18        11.7351    3.5453   -0.0614 H         1 <0>         0.4252
@<TRIPOS>BOND
     1    1    5 2
     2    1    2 1
     3    1   31 1
     4    2    3 2
     5    2   32 1
     6    3    4 1
     7    3    6 1
     8    4    5 1
     9    5   33 1
    10    6   14 2
    11    6    7 1
    12    7    8 2
    13    8   13 1
    14    8    9 1
    15    9   10 2
    16   10   11 1
    17   10   16 1
    18   11   12 1
    19   11   47 1
    20   12   13 1
    21   12   15 2
    22   13   14 1
    23   15   34 1
    24   16   21 1
    25   16   17 1
    26   17   18 1
    27   17   35 1
    28   17   36 1
    29   18   19 1
    30   18   37 1
    31   18   38 1
    32   19   20 1
    33   19   22 1
    34   19   48 1
    35   20   21 1
    36   20   39 1
    37   20   40 1
    38   21   41 1
    39   21   42 1
    40   22   23 1
    41   22   43 1
    42   22   44 1
    43   23   28 ar
    44   23   24 ar
    45   24   25 ar
    46   24   30 1
    47   25   26 ar
    48   25   45 1
    49   26   27 ar
    50   27   28 ar
    51   27   46 1
    52   28   29 1
