@<TRIPOS>MOLECULE
CHEMBL256332
   67    71     0     0     0
SMALL
USER_CHARGES

@<TRIPOS>ATOM
      1 C1          8.3276   -1.9632   -0.0229 C.3       1 <0>        -0.0814
      2 C2          7.2456   -3.0122   -0.0325 C.2       1 <0>         0.0279
      3 C3          7.4442   -4.3460   -0.0478 C.2       1 <0>        -0.2270
      4 C4          6.1740   -4.9523   -0.0521 C.2       1 <0>        -0.1096
      5 C5          5.2590   -3.9452   -0.0390 C.2       1 <0>         0.0059
      6 O1          5.9255   -2.7740   -0.0213 O.3       1 <0>        -0.1503
      7 C6          3.7924   -4.1072   -0.0379 C.ar      1 <0>         0.4651
      8 N1          3.2761   -5.3312   -0.0451 N.ar      1 <0>        -0.5080
      9 C7          1.9604   -5.5132   -0.0444 C.ar      1 <0>         0.4352
     10 C8          1.1213   -4.4006   -0.0358 C.ar      1 <0>        -0.2583
     11 C9          1.6977   -3.1348   -0.0284 C.ar      1 <0>         0.4579
     12 N2          3.0215   -3.0261   -0.0242 N.ar      1 <0>        -0.5411
     13 N3          0.8947   -1.9926   -0.0198 N.pl3     1 <0>        -0.3361
     14 C10         1.2507   -0.7669    0.4467 C.2       1 <0>         0.1166
     15 C11         0.1939    0.0593    0.2742 C.2       1 <0>        -0.2577
     16 C12        -0.8398   -0.6788   -0.3144 C.2       1 <0>         0.1065
     17 N4         -0.4198   -1.9040   -0.4962 N.2       1 <0>        -0.2869
     18 C13        -2.2022   -0.1499   -0.6819 C.3       1 <0>        -0.0776
     19 C14         2.5818   -0.3957    1.0479 C.3       1 <0>        -0.0893
     20 N5          1.4270   -6.7978   -0.0524 N.am      1 <0>        -0.6481
     21 C15         2.2422   -7.8653   -0.1639 C.2       1 <0>         0.5083
     22 O2          3.4451   -7.7122   -0.1643 O.2       1 <0>        -0.4329
     23 C16         1.6587   -9.2492   -0.2879 C.3       1 <0>         0.0387
     24 O3          2.7164  -10.2045   -0.3918 O.3       1 <0>        -0.2754
     25 C17         2.3590  -11.5102   -0.5112 C.ar      1 <0>         0.1727
     26 C18         3.3352  -12.4914   -0.6107 C.ar      1 <0>        -0.1351
     27 C19         2.9708  -13.8183   -0.7322 C.ar      1 <0>        -0.0880
     28 C20         1.6340  -14.1705   -0.7547 C.ar      1 <0>        -0.1720
     29 C21         0.6572  -13.1940   -0.6556 C.ar      1 <0>         0.1567
     30 C22         1.0183  -11.8642   -0.5281 C.ar      1 <0>        -0.2239
     31 F1         -0.6486  -13.5402   -0.6783 F         1 <0>        -0.1200
     32 C23         4.0315  -14.8832   -0.8407 C.3       1 <0>         0.0496
     33 N6          4.3875  -15.3585    0.5030 N.4       1 <0>        -0.3942
     34 C24         3.2535  -16.1120    1.0968 C.3       1 <0>        -0.0082
     35 C25         3.9365  -16.9865    2.1781 C.3       1 <0>        -0.1452
     36 C26         5.2722  -17.3836    1.5086 C.3       1 <0>        -0.1450
     37 C27         5.5111  -16.3170    0.4238 C.3       1 <0>        -0.0089
     38 H1          7.8730   -0.9726   -0.0058 H         1 <0>         0.0809
     39 H2          8.9509   -2.0922    0.8620 H         1 <0>         0.0927
     40 H3          8.9413   -2.0660   -0.9178 H         1 <0>         0.0926
     41 H4          8.3977   -4.8532   -0.0557 H         1 <0>         0.1574
     42 H5          5.9658   -6.0120   -0.0639 H         1 <0>         0.1643
     43 H6          0.0478   -4.5186   -0.0354 H         1 <0>         0.1634
     44 H7          0.1544    1.1044    0.5435 H         1 <0>         0.1613
     45 H8         -2.1808    0.2311   -1.7029 H         1 <0>         0.0849
     46 H9         -2.9355   -0.9532   -0.6092 H         1 <0>         0.0775
     47 H10        -2.4759    0.6547    0.0005 H         1 <0>         0.0858
     48 H11         3.2532   -0.0531    0.2605 H         1 <0>         0.0894
     49 H12         2.4411    0.4015    1.7778 H         1 <0>         0.0851
     50 H13         3.0138   -1.2670    1.5402 H         1 <0>         0.0776
     51 H14         0.4683   -6.9254    0.0222 H         1 <0>         0.4273
     52 H15         1.0554   -9.4695    0.5927 H         1 <0>         0.1069
     53 H16         1.0333   -9.3013   -1.1791 H         1 <0>         0.1082
     54 H17         4.3798  -12.2177   -0.5936 H         1 <0>         0.1506
     55 H18         1.3514  -15.2085   -0.8501 H         1 <0>         0.1469
     56 H19         0.2570  -11.1027   -0.4459 H         1 <0>         0.1535
     57 H20         3.6510  -15.7162   -1.4318 H         1 <0>         0.1419
     58 H21         4.9152  -14.4677   -1.3251 H         1 <0>         0.1438
     59 H22         2.5345  -15.4302    1.5511 H         1 <0>         0.1338
     60 H23         2.7710  -16.7366    0.3451 H         1 <0>         0.1340
     61 H24         4.1163  -16.4086    3.0846 H         1 <0>         0.0979
     62 H25         3.3363  -17.8701    2.3953 H         1 <0>         0.1168
     63 H26         6.0810  -17.3679    2.2392 H         1 <0>         0.1055
     64 H27         5.1895  -18.3717    1.0559 H         1 <0>         0.1043
     65 H28         5.5306  -16.7859   -0.5600 H         1 <0>         0.1325
     66 H29         6.4530  -15.8013    0.6111 H         1 <0>         0.1339
     67 H30         4.6360  -14.5791    1.0937 H         1 <0>         0.4283
@<TRIPOS>BOND
     1    1    2 1
     2    1   38 1
     3    1   39 1
     4    1   40 1
     5    2    6 1
     6    2    3 2
     7    3    4 1
     8    3   41 1
     9    4    5 2
    10    4   42 1
    11    5    6 1
    12    5    7 1
    13    7   12 ar
    14    7    8 ar
    15    8    9 ar
    16    9   10 ar
    17    9   20 1
    18   10   11 ar
    19   10   43 1
    20   11   12 ar
    21   11   13 1
    22   13   17 1
    23   13   14 1
    24   14   15 2
    25   14   19 1
    26   15   16 1
    27   15   44 1
    28   16   17 2
    29   16   18 1
    30   18   45 1
    31   18   46 1
    32   18   47 1
    33   19   48 1
    34   19   49 1
    35   19   50 1
    36   20   21 am
    37   20   51 1
    38   21   22 2
    39   21   23 1
    40   23   24 1
    41   23   52 1
    42   23   53 1
    43   24   25 1
    44   25   30 ar
    45   25   26 ar
    46   26   27 ar
    47   26   54 1
    48   27   28 ar
    49   27   32 1
    50   28   29 ar
    51   28   55 1
    52   29   30 ar
    53   29   31 1
    54   30   56 1
    55   32   33 1
    56   32   57 1
    57   32   58 1
    58   33   37 1
    59   33   34 1
    60   33   67 1
    61   34   35 1
    62   34   59 1
    63   34   60 1
    64   35   36 1
    65   35   61 1
    66   35   62 1
    67   36   37 1
    68   36   63 1
    69   36   64 1
    70   37   65 1
    71   37   66 1
