@<TRIPOS>MOLECULE
CHEMBL1088398
   35    37     0     0     0
SMALL
USER_CHARGES

@<TRIPOS>ATOM
      1 C1          0.0262    1.6794    0.2698 C.3       1 <0>        -0.1055
      2 C2          0.0079    0.1781    0.1396 C.2       1 <0>        -0.0597
      3 C3         -0.0233   -0.3981   -1.0731 C.2       1 <0>        -0.1639
      4 S1         -0.0331   -2.1419   -0.7021 S.3       1 <0>         0.1427
      5 C4          0.0050   -2.0463    1.0695 C.2       1 <0>         0.1043
      6 C5          0.0298   -0.6612    1.3225 C.2       1 <0>        -0.2435
      7 C6          0.0682   -0.2806    2.7037 C.2       1 <0>         0.5573
      8 O1          0.0872    0.8963    3.0200 O.2       1 <0>        -0.5128
      9 N1          0.0825   -1.2408    3.6466 N.am      1 <0>        -0.5203
     10 C7          0.0611   -2.5657    3.3088 C.2       1 <0>         0.4551
     11 N2          0.0166   -2.9413    2.0483 N.2       1 <0>        -0.4749
     12 C8          0.0784   -3.5895    4.3740 C.ar      1 <0>        -0.0673
     13 C9         -0.9078   -4.5770    4.4134 C.ar      1 <0>        -0.0593
     14 C10        -0.8858   -5.5299    5.4106 C.ar      1 <0>        -0.1170
     15 C11         0.1106   -5.5085    6.3704 C.ar      1 <0>        -0.0907
     16 C12         1.0910   -4.5326    6.3373 C.ar      1 <0>        -0.1157
     17 C13         1.0842   -3.5772    5.3422 C.ar      1 <0>        -0.0954
     18 C14         0.1221   -0.8596    5.0606 C.3       1 <0>         0.1924
     19 C15        -1.2475   -0.6153    5.5415 C.1       1 <0>        -0.2206
     20 C16        -2.3398   -0.4204    5.9251 C.1       1 <0>        -0.1499
     21 C17        -0.0457    0.2694   -2.4241 C.3       1 <0>        -0.0677
     22 H1          1.0579    2.0311    0.2749 H         1 <0>         0.0725
     23 H2         -0.5049    2.1236   -0.5720 H         1 <0>         0.0680
     24 H3         -0.4610    1.9693    1.2007 H         1 <0>         0.0823
     25 H4         -1.6863   -4.5947    3.6650 H         1 <0>         0.1330
     26 H5         -1.6482   -6.2941    5.4425 H         1 <0>         0.1348
     27 H6          0.1230   -6.2566    7.1492 H         1 <0>         0.1322
     28 H7          1.8657   -4.5214    7.0897 H         1 <0>         0.1356
     29 H8          1.8525   -2.8187    5.3149 H         1 <0>         0.1328
     30 H9          0.5729   -1.6644    5.6414 H         1 <0>         0.1294
     31 H10         0.7150    0.0477    5.1759 H         1 <0>         0.1244
     32 H11        -3.3168   -0.2461    6.2681 H         1 <0>         0.2239
     33 H12         0.9763    0.4206   -2.7716 H         1 <0>         0.0819
     34 H13        -0.5807   -0.3627   -3.1328 H         1 <0>         0.0764
     35 H14        -0.5488    1.2331   -2.3449 H         1 <0>         0.0852
@<TRIPOS>BOND
     1    1    2 1
     2    1   22 1
     3    1   23 1
     4    1   24 1
     5    2    6 1
     6    2    3 2
     7    3    4 1
     8    3   21 1
     9    4    5 1
    10    5   11 1
    11    5    6 2
    12    6    7 1
    13    7    8 2
    14    7    9 am
    15    9   10 1
    16    9   18 1
    17   10   11 2
    18   10   12 1
    19   12   17 ar
    20   12   13 ar
    21   13   14 ar
    22   13   25 1
    23   14   15 ar
    24   14   26 1
    25   15   16 ar
    26   15   27 1
    27   16   17 ar
    28   16   28 1
    29   17   29 1
    30   18   19 1
    31   18   30 1
    32   18   31 1
    33   19   20 3
    34   20   32 1
    35   21   33 1
    36   21   34 1
    37   21   35 1
