@<TRIPOS>MOLECULE
CHEMBL512133
   61    66     0     0     0
SMALL
USER_CHARGES

@<TRIPOS>ATOM
      1 C1         -0.0173    1.4248    0.0099 C.3       1 <0>         0.0305
      2 O1          0.0021   -0.0041    0.0020 O.3       1 <0>        -0.3844
      3 C2          0.6518   -0.5703   -1.1379 C.3       1 <0>         0.0618
      4 C3          0.6131   -2.0967   -1.0411 C.3       1 <0>         0.0615
      5 O2         -0.7418   -2.5446   -1.1169 O.3       1 <0>        -0.3054
      6 C4         -0.9533   -3.8852   -1.0457 C.ar      1 <0>         0.1366
      7 C5          0.1220   -4.7467   -0.9001 C.ar      1 <0>        -0.2140
      8 C6         -0.0946   -6.1089   -0.8264 C.ar      1 <0>        -0.0773
      9 C7         -1.3813   -6.6059   -0.8959 C.ar      1 <0>        -0.1580
     10 C8         -2.4600   -5.7466   -1.0410 C.ar      1 <0>        -0.0315
     11 C9         -2.2498   -4.3869   -1.1135 C.ar      1 <0>        -0.1089
     12 C10        -3.3877   -3.4139   -1.2777 C.3       1 <0>         0.1099
     13 N1         -4.6611   -4.0481   -0.9222 N.3       1 <0>        -0.5270
     14 C11        -4.8266   -5.3092   -1.6622 C.3       1 <0>         0.0433
     15 C12        -3.8452   -6.3373   -1.1068 C.3       1 <0>        -0.0761
     16 C13        -5.7888   -3.1401   -1.1705 C.3       1 <0>         0.0409
     17 C14        -7.0626   -3.7307   -0.5626 C.3       1 <0>         0.1420
     18 N2         -8.1872   -2.8251   -0.8102 N.pl3     1 <0>        -0.3543
     19 C15        -8.5858   -1.8059    0.0018 C.2       1 <0>         0.3732
     20 C16        -9.6922   -1.2085   -0.6210 C.2       1 <0>        -0.2678
     21 C17        -9.9267   -1.9082   -1.8182 C.2       1 <0>         0.1318
     22 N3         -9.0341   -2.8540   -1.9252 N.2       1 <0>        -0.2641
     23 C18       -10.3259   -0.0715    0.0475 C.2       1 <0>         0.4066
     24 N4        -11.3484    0.7097   -0.2325 N.2       1 <0>        -0.5165
     25 C19       -11.5025    1.6153    0.7418 C.2       1 <0>         0.3499
     26 N5        -10.5766    1.4253    1.6628 N.2       1 <0>        -0.2995
     27 N6         -9.7973    0.3395    1.2436 N.pl3     1 <0>        -0.3761
     28 C20        -8.7168   -0.3070    1.7697 C.2       1 <0>         0.6920
     29 N7         -8.1470   -1.3254    1.1735 N.2       1 <0>        -0.5589
     30 N8         -8.2068    0.1264    2.9712 N.pl3     1 <0>        -0.8017
     31 C21       -12.5449    2.6624    0.7797 C.2       1 <0>         0.0429
     32 C22       -12.7083    3.5903    1.7597 C.2       1 <0>        -0.1375
     33 C23       -13.8143    4.3810    1.3896 C.2       1 <0>        -0.2199
     34 C24       -14.2666    3.9016    0.2143 C.2       1 <0>        -0.0046
     35 O3        -13.4944    2.8667   -0.1537 O.3       1 <0>        -0.1522
     36 H1          1.0053    1.8021    0.0021 H         1 <0>         0.0424
     37 H2         -0.5445    1.7859   -0.8732 H         1 <0>         0.0426
     38 H3         -0.5275    1.7763    0.9067 H         1 <0>         0.0881
     39 H4          0.1385   -0.2506   -2.0447 H         1 <0>         0.0613
     40 H5          1.6883   -0.2344   -1.1694 H         1 <0>         0.0727
     41 H6          1.1847   -2.5275   -1.8631 H         1 <0>         0.0786
     42 H7          1.0473   -2.4117   -0.0922 H         1 <0>         0.0728
     43 H8          1.1267   -4.3543   -0.8448 H         1 <0>         0.1274
     44 H9          0.7408   -6.7842   -0.7149 H         1 <0>         0.1253
     45 H10        -1.5484   -7.6712   -0.8372 H         1 <0>         0.1241
     46 H11        -3.2213   -2.5532   -0.6299 H         1 <0>         0.0931
     47 H12        -3.4291   -3.0804   -2.3146 H         1 <0>         0.0466
     48 H13        -5.8473   -5.6726   -1.5428 H         1 <0>         0.0846
     49 H14        -4.6148   -5.1444   -2.7186 H         1 <0>         0.0434
     50 H15        -3.8323   -7.2198   -1.7464 H         1 <0>         0.0845
     51 H16        -4.1647   -6.6230   -0.1046 H         1 <0>         0.0884
     52 H17        -5.5832   -2.1720   -0.7138 H         1 <0>         0.0839
     53 H18        -5.9238   -3.0137   -2.2448 H         1 <0>         0.0476
     54 H19        -7.2682   -4.6987   -1.0193 H         1 <0>         0.1023
     55 H20        -6.9277   -3.8571    0.5116 H         1 <0>         0.1102
     56 H21       -10.7102   -1.6960   -2.5305 H         1 <0>         0.2023
     57 H22        -8.6147    0.8785    3.4282 H         1 <0>         0.4261
     58 H23        -7.4392   -0.3200    3.3616 H         1 <0>         0.4311
     59 H24       -12.1069    3.7000    2.6500 H         1 <0>         0.1599
     60 H25       -14.2225    5.2135    1.9434 H         1 <0>         0.1593
     61 H26       -15.1081    4.2882   -0.3415 H         1 <0>         0.2140
@<TRIPOS>BOND
     1    1    2 1
     2    1   36 1
     3    1   37 1
     4    1   38 1
     5    2    3 1
     6    3    4 1
     7    3   39 1
     8    3   40 1
     9    4    5 1
    10    4   41 1
    11    4   42 1
    12    5    6 1
    13    6   11 ar
    14    6    7 ar
    15    7    8 ar
    16    7   43 1
    17    8    9 ar
    18    8   44 1
    19    9   10 ar
    20    9   45 1
    21   10   15 1
    22   10   11 ar
    23   11   12 1
    24   12   13 1
    25   12   46 1
    26   12   47 1
    27   13   14 1
    28   13   16 1
    29   14   15 1
    30   14   48 1
    31   14   49 1
    32   15   50 1
    33   15   51 1
    34   16   17 1
    35   16   52 1
    36   16   53 1
    37   17   18 1
    38   17   54 1
    39   17   55 1
    40   18   22 1
    41   18   19 1
    42   19   29 1
    43   19   20 2
    44   20   21 1
    45   20   23 1
    46   21   22 2
    47   21   56 1
    48   23   27 1
    49   23   24 2
    50   24   25 1
    51   25   26 2
    52   25   31 1
    53   26   27 1
    54   27   28 1
    55   28   29 2
    56   28   30 1
    57   30   57 1
    58   30   58 1
    59   31   35 1
    60   31   32 2
    61   32   33 1
    62   32   59 1
    63   33   34 2
    64   33   60 1
    65   34   35 1
    66   34   61 1
