@<TRIPOS>MOLECULE
CHEMBL77279
   59    61     0     0     0
SMALL
USER_CHARGES

@<TRIPOS>ATOM
      1 C1         -0.0187    1.5258    0.0104 C.3       1 <0>        -0.1472
      2 C2          0.0021   -0.0041    0.0020 C.3       1 <0>        -0.1386
      3 C3         -1.4333   -0.5336    0.0129 C.3       1 <0>         0.1191
      4 N1         -1.4134   -1.9985    0.0048 N.am      1 <0>        -0.5088
      5 C4         -1.4098   -2.6843   -1.2005 C.2       1 <0>         0.3298
      6 C5         -1.3908   -4.0767   -1.1791 C.2       1 <0>        -0.1452
      7 C6         -1.3763   -4.7443    0.0625 C.2       1 <0>         0.5927
      8 O1         -1.3591   -5.9617    0.1069 O.2       1 <0>        -0.5108
      9 N2         -1.3811   -4.0204    1.2008 N.am      1 <0>        -0.5483
     10 C7         -1.3932   -2.6768    1.1674 C.2       1 <0>         0.7075
     11 O2         -1.3913   -2.0582    2.2143 O.2       1 <0>        -0.5279
     12 C8         -1.3666   -4.7094    2.4935 C.3       1 <0>         0.1135
     13 C9          0.0808   -4.9302    2.9376 C.3       1 <0>        -0.1378
     14 C10         0.0960   -5.6498    4.2877 C.3       1 <0>        -0.1474
     15 N3         -1.3914   -4.4903   -2.4986 N.pl3     1 <0>        -0.5149
     16 C11        -1.4103   -3.3600   -3.2649 C.2       1 <0>         0.3314
     17 N4         -1.4210   -2.2994   -2.4744 N.2       1 <0>        -0.4857
     18 C12        -1.4177   -3.3273   -4.7286 C.2       1 <0>        -0.1127
     19 C13        -1.4368   -2.1448   -5.3765 C.2       1 <0>        -0.0237
     20 C14        -1.4442   -2.1119   -6.8472 C.ar      1 <0>         0.0001
     21 C15        -1.4372   -3.3064   -7.5751 C.ar      1 <0>        -0.2188
     22 C16        -1.4447   -3.2717   -8.9571 C.ar      1 <0>         0.1493
     23 C17        -1.4591   -2.0499   -9.6243 C.ar      1 <0>         0.0403
     24 C18        -1.4660   -0.8591   -8.9031 C.ar      1 <0>         0.1493
     25 C19        -1.4640   -0.8862   -7.5209 C.ar      1 <0>        -0.2075
     26 O3         -1.4801    0.3321   -9.5590 O.3       1 <0>        -0.3008
     27 C20        -1.4866    1.5145   -8.7566 C.3       1 <0>         0.0224
     28 O4         -1.4659   -2.0196  -10.9837 O.3       1 <0>        -0.3126
     29 C21        -2.7424   -2.0167  -11.6261 C.3       1 <0>         0.0354
     30 O5         -1.4375   -4.4325   -9.6656 O.3       1 <0>        -0.3004
     31 C22        -1.4222   -5.6495   -8.9169 C.3       1 <0>         0.0226
     32 H1          1.0039    1.9031    0.0027 H         1 <0>         0.0609
     33 H2         -0.5459    1.8868   -0.8726 H         1 <0>         0.0586
     34 H3         -0.5289    1.8773    0.9072 H         1 <0>         0.0591
     35 H4          0.5123   -0.3556   -0.8948 H         1 <0>         0.0679
     36 H5          0.5293   -0.3651    0.8851 H         1 <0>         0.0681
     37 H6         -1.9435   -0.1821    0.9097 H         1 <0>         0.1008
     38 H7         -1.9605   -0.1726   -0.8702 H         1 <0>         0.0986
     39 H8         -1.8854   -4.1018    3.2350 H         1 <0>         0.1036
     40 H9         -1.8681   -5.6725    2.3976 H         1 <0>         0.1018
     41 H10         0.5997   -5.5378    2.1961 H         1 <0>         0.0671
     42 H11         0.5823   -3.9672    3.0335 H         1 <0>         0.0693
     43 H12         1.1272   -5.8071    4.6040 H         1 <0>         0.0616
     44 H13        -0.4228   -5.0422    5.0291 H         1 <0>         0.0600
     45 H14        -0.4055   -6.6128    4.1918 H         1 <0>         0.0590
     46 H15        -1.4078   -4.2502   -5.2894 H         1 <0>         0.1432
     47 H16        -1.4467   -1.2219   -4.8157 H         1 <0>         0.1450
     48 H17        -1.4257   -4.2546   -7.0582 H         1 <0>         0.1391
     49 H18        -1.4736    0.0379   -6.9621 H         1 <0>         0.1426
     50 H19        -1.4978    2.3922   -9.4029 H         1 <0>         0.1050
     51 H20        -2.3734    1.5187   -8.1228 H         1 <0>         0.0590
     52 H21        -0.5935    1.5346   -8.1320 H         1 <0>         0.0602
     53 H22        -3.2898   -2.9181  -11.3506 H         1 <0>         0.0452
     54 H23        -3.3059   -1.1386  -11.3107 H         1 <0>         0.0456
     55 H24        -2.6050   -1.9913  -12.7071 H         1 <0>         0.0944
     56 H25        -2.3086   -5.6980   -8.2843 H         1 <0>         0.0576
     57 H26        -1.4178   -6.4975   -9.6018 H         1 <0>         0.1054
     58 H27        -0.5287   -5.6814   -8.2935 H         1 <0>         0.0588
     59 H28        -1.3802   -5.4061   -2.8181 H         1 <0>         0.4380
@<TRIPOS>BOND
     1    1    2 1
     2    1   32 1
     3    1   33 1
     4    1   34 1
     5    2    3 1
     6    2   35 1
     7    2   36 1
     8    3    4 1
     9    3   37 1
    10    3   38 1
    11    4   10 am
    12    4    5 1
    13    5   17 1
    14    5    6 2
    15    6    7 1
    16    6   15 1
    17    7    8 2
    18    7    9 am
    19    9   10 am
    20    9   12 1
    21   10   11 2
    22   12   13 1
    23   12   39 1
    24   12   40 1
    25   13   14 1
    26   13   41 1
    27   13   42 1
    28   14   43 1
    29   14   44 1
    30   14   45 1
    31   15   16 1
    32   15   59 1
    33   16   17 2
    34   16   18 1
    35   18   19 2
    36   18   46 1
    37   19   20 1
    38   19   47 1
    39   20   25 ar
    40   20   21 ar
    41   21   22 ar
    42   21   48 1
    43   22   23 ar
    44   22   30 1
    45   23   24 ar
    46   23   28 1
    47   24   25 ar
    48   24   26 1
    49   25   49 1
    50   26   27 1
    51   27   50 1
    52   27   51 1
    53   27   52 1
    54   28   29 1
    55   29   53 1
    56   29   54 1
    57   29   55 1
    58   30   31 1
    59   31   56 1
    60   31   57 1
    61   31   58 1
