@<TRIPOS>MOLECULE
CHEMBL275636
   45    49     0     0     0
SMALL
USER_CHARGES

@<TRIPOS>ATOM
      1 C1         -0.0162    1.3433    0.0094 C.2       1 <0>        -0.2205
      2 C2          1.3252    1.7744   -0.0011 C.2       1 <0>        -0.1269
      3 C3          2.0962    0.6548   -0.0144 C.2       1 <0>         0.0270
      4 O1          1.2797   -0.4166   -0.0124 O.3       1 <0>        -0.1521
      5 C4          0.0021   -0.0041    0.0020 C.2       1 <0>         0.0058
      6 C5          3.5736    0.6193   -0.0287 C.2       1 <0>         0.3640
      7 N1          4.3223   -0.4908   -0.0472 N.2       1 <0>        -0.5056
      8 C6          5.5979   -0.1638   -0.0558 C.2       1 <0>         0.4003
      9 C7          6.8494   -0.9218   -0.0750 C.2       1 <0>        -0.2575
     10 C8          7.1770   -2.2895   -0.0925 C.2       1 <0>         0.1543
     11 N2          8.4769   -2.4024   -0.1057 N.2       1 <0>        -0.2684
     12 N3          9.0564   -1.1275   -0.0976 N.pl3     1 <0>        -0.3755
     13 C9          8.0548   -0.2036   -0.0786 C.2       1 <0>         0.3749
     14 N4          8.0263    1.1363   -0.0638 N.2       1 <0>        -0.5806
     15 C10         6.9037    1.8122   -0.0459 C.2       1 <0>         0.7061
     16 N5          5.6820    1.2042   -0.0426 N.pl3     1 <0>        -0.3789
     17 N6          4.3634    1.6766   -0.0311 N.2       1 <0>        -0.2936
     18 N7          6.9590    3.1863   -0.0316 N.pl3     1 <0>        -0.7945
     19 C11        10.4923   -0.8370   -0.1068 C.3       1 <0>         0.1255
     20 C12        10.9797   -0.7205   -1.5524 C.3       1 <0>        -0.0298
     21 N8         12.4195   -0.4292   -1.5616 N.4       1 <0>        -0.3813
     22 C13        12.6558    0.8927   -0.9651 C.3       1 <0>        -0.0511
     23 C14        14.1566    1.1937   -0.9757 C.3       1 <0>         0.0371
     24 O2         14.6409    1.1299   -2.3201 O.3       1 <0>        -0.3556
     25 C15        14.4122   -0.1322   -2.9530 C.3       1 <0>         0.0366
     26 C16        12.9119   -0.4357   -2.9461 C.3       1 <0>        -0.0423
     27 H1         -0.8931    1.9736    0.0252 H         1 <0>         0.1625
     28 H2          1.6736    2.7966    0.0006 H         1 <0>         0.1610
     29 H3         -0.8667   -0.6456    0.0076 H         1 <0>         0.2174
     30 H4          6.4721   -3.1077   -0.0946 H         1 <0>         0.2099
     31 H5          7.8178    3.6373   -0.0348 H         1 <0>         0.4310
     32 H6          6.1392    3.7046   -0.0183 H         1 <0>         0.4316
     33 H7         10.6764    0.1019    0.4155 H         1 <0>         0.1167
     34 H8         11.0292   -1.6426    0.3939 H         1 <0>         0.1222
     35 H9         10.7956   -1.6593   -2.0747 H         1 <0>         0.1438
     36 H10        10.4428    0.0852   -2.0531 H         1 <0>         0.1369
     37 H11        12.1286    1.6519   -1.5428 H         1 <0>         0.1425
     38 H12        12.2911    0.8986    0.0620 H         1 <0>         0.1432
     39 H13        14.3306    2.1916   -0.5732 H         1 <0>         0.1434
     40 H14        14.6798    0.4579   -0.3651 H         1 <0>         0.0831
     41 H15        14.7710   -0.0939   -3.9816 H         1 <0>         0.1437
     42 H16        14.9441   -0.9134   -2.4101 H         1 <0>         0.0833
     43 H17        12.7371   -1.4159   -3.3896 H         1 <0>         0.1450
     44 H18        12.3845    0.3240   -3.5231 H         1 <0>         0.1399
     45 H19        12.9084   -1.1318   -1.0274 H         1 <0>         0.4257
@<TRIPOS>BOND
     1    1    5 2
     2    1    2 1
     3    1   27 1
     4    2    3 2
     5    2   28 1
     6    3    4 1
     7    3    6 1
     8    4    5 1
     9    5   29 1
    10    6   17 2
    11    6    7 1
    12    7    8 2
    13    8   16 1
    14    8    9 1
    15    9   13 2
    16    9   10 1
    17   10   11 2
    18   10   30 1
    19   11   12 1
    20   12   13 1
    21   12   19 1
    22   13   14 1
    23   14   15 2
    24   15   16 1
    25   15   18 1
    26   16   17 1
    27   18   31 1
    28   18   32 1
    29   19   20 1
    30   19   33 1
    31   19   34 1
    32   20   21 1
    33   20   35 1
    34   20   36 1
    35   21   26 1
    36   21   22 1
    37   21   45 1
    38   22   23 1
    39   22   37 1
    40   22   38 1
    41   23   24 1
    42   23   39 1
    43   23   40 1
    44   24   25 1
    45   25   26 1
    46   25   41 1
    47   25   42 1
    48   26   43 1
    49   26   44 1
