@<TRIPOS>MOLECULE
CHEMBL222868
   59    64     0     0     0
SMALL
USER_CHARGES

@<TRIPOS>ATOM
      1 C1         -0.0162    1.3433    0.0094 C.2       1 <0>        -0.2194
      2 C2          1.3252    1.7744   -0.0011 C.2       1 <0>        -0.1256
      3 C3          2.0963    0.6547   -0.0144 C.2       1 <0>         0.0337
      4 O1          1.2798   -0.4167   -0.0124 O.3       1 <0>        -0.1602
      5 C4          0.0021   -0.0041    0.0020 C.2       1 <0>        -0.0033
      6 C5          3.5735    0.6192   -0.0292 C.2       1 <0>         0.3399
      7 N1          4.3782    1.6975   -0.0257 N.2       1 <0>        -0.4902
      8 C6          5.6284    1.3133   -0.0438 C.2       1 <0>         0.5048
      9 N2          6.7827    2.0136   -0.0426 N.2       1 <0>        -0.5360
     10 C7          7.9149    1.3544   -0.2245 C.2       1 <0>         0.6695
     11 N3          7.9251    0.0030   -0.4737 N.pl3     1 <0>        -0.6601
     12 C8          6.8335   -0.7612   -0.0614 C.2       1 <0>         0.6308
     13 N4          5.6350   -0.0666   -0.0535 N.pl3     1 <0>        -0.4306
     14 N5          4.3125   -0.4776   -0.0421 N.2       1 <0>        -0.2780
     15 N6          6.9320   -2.0133    0.2840 N.2       1 <0>        -0.6729
     16 N7          9.1029    2.0335   -0.1638 N.pl3     1 <0>        -0.6890
     17 C9          9.1102    3.4745    0.1004 C.3       1 <0>         0.1413
     18 C10        10.5532    3.9828    0.1160 C.3       1 <0>        -0.1230
     19 H1         11.0454    3.7099   -0.8175 H         1 <0>         0.1076
     20 C11        11.3042    3.3535    1.2929 C.3       1 <0>        -0.1416
     21 C12        12.7221    3.9295    1.3492 C.3       1 <0>        -0.1359
     22 C13        12.6419    5.4542    1.4609 C.3       1 <0>         0.0144
     23 H2         13.6484    5.8695    1.5116 H         1 <0>         0.1419
     24 C14        11.8689    5.8274    2.7309 C.3       1 <0>         0.1113
     25 N8         11.6860    7.2868    2.7529 N.pl3     1 <0>        -0.6047
     26 C15        11.1409    7.9353    1.5502 C.3       1 <0>         0.1058
     27 C16        11.9459    7.4615    0.3356 C.3       1 <0>        -0.0206
     28 N9         11.9464    5.9943    0.2859 N.4       1 <0>        -0.3768
     29 C17        10.5570    5.5054    0.2694 C.3       1 <0>        -0.0125
     30 C18        12.0170    8.0288    3.8734 C.ar      1 <0>         0.5558
     31 N10        12.5101    7.4101    4.9362 N.ar      1 <0>        -0.5664
     32 C19        12.8370    8.0896    6.0230 C.ar      1 <0>         0.1957
     33 C20        12.6580    9.4639    6.0405 C.ar      1 <0>        -0.2668
     34 C21        12.1399   10.0791    4.9117 C.ar      1 <0>         0.1963
     35 N11        11.8382    9.3415    3.8559 N.ar      1 <0>        -0.5653
     36 H3         -0.8931    1.9736    0.0252 H         1 <0>         0.1606
     37 H4          1.6735    2.7967    0.0011 H         1 <0>         0.1626
     38 H5         -0.8667   -0.6456    0.0069 H         1 <0>         0.2147
     39 H6          6.1427   -2.5028    0.5637 H         1 <0>         0.3821
     40 H7          9.9393    1.5604   -0.2957 H         1 <0>         0.4196
     41 H8          8.5519    3.9900   -0.6811 H         1 <0>         0.0954
     42 H9          8.6460    3.6690    1.0672 H         1 <0>         0.0935
     43 H10        10.7815    3.5807    2.2220 H         1 <0>         0.0918
     44 H11        11.3549    2.2732    1.1570 H         1 <0>         0.0974
     45 H12        13.2442    3.5277    2.2175 H         1 <0>         0.1188
     46 H13        13.2614    3.6588    0.4415 H         1 <0>         0.0954
     47 H14        10.8958    5.3363    2.7251 H         1 <0>         0.0933
     48 H15        12.4345    5.5158    3.6090 H         1 <0>         0.1389
     49 H16        10.0941    7.6575    1.4268 H         1 <0>         0.0925
     50 H17        11.2267    9.0177    1.6469 H         1 <0>         0.1409
     51 H18        11.4954    7.8557   -0.5753 H         1 <0>         0.1470
     52 H19        12.9723    7.8193    0.4179 H         1 <0>         0.1343
     53 H20        10.0240    5.9560   -0.5678 H         1 <0>         0.1419
     54 H21        10.0635    5.7776    1.2025 H         1 <0>         0.1376
     55 H22        13.2382    7.5796    6.8864 H         1 <0>         0.1758
     56 H23        12.9163   10.0428    6.9149 H         1 <0>         0.1544
     57 H24        11.9878   11.1481    4.8930 H         1 <0>         0.1762
     58 H25         8.6760   -0.4109   -0.9272 H         1 <0>         0.4396
     59 H26        12.4167    5.6855   -0.5517 H         1 <0>         0.4257
@<TRIPOS>BOND
     1    1    5 2
     2    1    2 1
     3    1   36 1
     4    2    3 2
     5    2   37 1
     6    3    4 1
     7    3    6 1
     8    4    5 1
     9    5   38 1
    10    6   14 2
    11    6    7 1
    12    7    8 2
    13    8   13 1
    14    8    9 1
    15    9   10 2
    16   10   11 1
    17   10   16 1
    18   11   12 1
    19   11   58 1
    20   12   13 1
    21   12   15 2
    22   13   14 1
    23   15   39 1
    24   16   17 1
    25   16   40 1
    26   17   18 1
    27   17   41 1
    28   17   42 1
    29   18   19 1
    30   18   29 1
    31   18   20 1
    32   20   21 1
    33   20   43 1
    34   20   44 1
    35   21   22 1
    36   21   45 1
    37   21   46 1
    38   22   23 1
    39   22   28 1
    40   22   24 1
    41   24   25 1
    42   24   47 1
    43   24   48 1
    44   25   26 1
    45   25   30 1
    46   26   27 1
    47   26   49 1
    48   26   50 1
    49   27   28 1
    50   27   51 1
    51   27   52 1
    52   28   29 1
    53   28   59 1
    54   29   53 1
    55   29   54 1
    56   30   35 ar
    57   30   31 ar
    58   31   32 ar
    59   32   33 ar
    60   32   55 1
    61   33   34 ar
    62   33   56 1
    63   34   35 ar
    64   34   57 1
