@<TRIPOS>MOLECULE
CHEMBL564473
   42    44     0     0     0
SMALL
USER_CHARGES

@<TRIPOS>ATOM
      1 C1         -0.0173    1.4248    0.0099 C.3       1 <0>         0.0329
      2 O1          0.0021   -0.0041    0.0020 O.3       1 <0>        -0.3904
      3 C2         -1.2953   -0.6030    0.0112 C.3       1 <0>         0.1129
      4 C3         -1.1560   -2.1035    0.0018 C.ar      1 <0>         0.1261
      5 C4          0.1037   -2.6726   -0.0076 C.ar      1 <0>        -0.1386
      6 C5          0.2209   -4.0539   -0.0162 C.ar      1 <0>        -0.0749
      7 C6         -0.9386   -4.8146   -0.0150 C.ar      1 <0>        -0.1516
      8 C7         -2.1635   -4.1752   -0.0054 C.ar      1 <0>         0.1075
      9 N1         -2.2370   -2.8584    0.0081 N.ar      1 <0>        -0.4657
     10 C8         -3.4300   -4.9919   -0.0040 C.3       1 <0>         0.1724
     11 N2         -3.8989   -5.1634    1.3733 N.am      1 <0>        -0.6999
     12 C9         -5.0230   -5.8649    1.6200 C.2       1 <0>         0.5753
     13 O2         -5.6473   -6.3550    0.7003 O.2       1 <0>        -0.5152
     14 C10        -5.4981   -6.0386    3.0154 C.ar      1 <0>         0.1839
     15 C11        -6.6539   -6.7657    3.2811 C.ar      1 <0>        -0.2135
     16 C12        -7.0618   -6.9013    4.6163 C.ar      1 <0>         0.3048
     17 N3         -6.3319   -6.3325    5.5752 N.ar      1 <0>        -0.5450
     18 C13        -5.2378   -5.6486    5.2784 C.ar      1 <0>         0.5813
     19 N4         -4.8202   -5.5048    4.0310 N.ar      1 <0>        -0.5529
     20 N5         -4.5066   -5.0720    6.3029 N.pl3     1 <0>        -0.8161
     21 C14        -8.2799   -7.6614    4.9536 C.2       1 <0>        -0.0051
     22 C15        -8.7785   -7.8578    6.2053 C.2       1 <0>        -0.1264
     23 C16        -9.9440   -8.6327    6.0600 C.2       1 <0>        -0.2242
     24 C17       -10.0997   -8.8699    4.7413 C.2       1 <0>        -0.0038
     25 O3         -9.0963   -8.2776    4.0763 O.3       1 <0>        -0.1618
     26 H1          1.0053    1.8021    0.0021 H         1 <0>         0.0912
     27 H2         -0.5445    1.7859   -0.8732 H         1 <0>         0.0455
     28 H3         -0.5275    1.7763    0.9067 H         1 <0>         0.0453
     29 H4         -1.8320   -0.2936    0.9080 H         1 <0>         0.0748
     30 H5         -1.8490   -0.2840   -0.8718 H         1 <0>         0.0752
     31 H6          0.9855   -2.0490   -0.0086 H         1 <0>         0.1476
     32 H7          1.1921   -4.5263   -0.0240 H         1 <0>         0.1405
     33 H8         -0.8848   -5.8932   -0.0219 H         1 <0>         0.1396
     34 H9         -4.1944   -4.4779   -0.5867 H         1 <0>         0.0922
     35 H10        -3.2327   -5.9690   -0.4449 H         1 <0>         0.0919
     36 H11        -3.4005   -4.7720    2.1077 H         1 <0>         0.4137
     37 H12        -7.2228   -7.2138    2.4799 H         1 <0>         0.1634
     38 H13        -4.7982   -5.1720    7.2227 H         1 <0>         0.4179
     39 H14        -3.7028   -4.5680    6.1010 H         1 <0>         0.4179
     40 H15        -8.3601   -7.4903    7.1306 H         1 <0>         0.1603
     41 H16       -10.5915   -8.9735    6.8544 H         1 <0>         0.1575
     42 H17       -10.9014   -9.4393    4.2945 H         1 <0>         0.2132
@<TRIPOS>BOND
     1    1    2 1
     2    1   26 1
     3    1   27 1
     4    1   28 1
     5    2    3 1
     6    3    4 1
     7    3   29 1
     8    3   30 1
     9    4    9 ar
    10    4    5 ar
    11    5    6 ar
    12    5   31 1
    13    6    7 ar
    14    6   32 1
    15    7    8 ar
    16    7   33 1
    17    8    9 ar
    18    8   10 1
    19   10   11 1
    20   10   34 1
    21   10   35 1
    22   11   12 am
    23   11   36 1
    24   12   13 2
    25   12   14 1
    26   14   19 ar
    27   14   15 ar
    28   15   16 ar
    29   15   37 1
    30   16   17 ar
    31   16   21 1
    32   17   18 ar
    33   18   19 ar
    34   18   20 1
    35   20   38 1
    36   20   39 1
    37   21   25 1
    38   21   22 2
    39   22   23 1
    40   22   40 1
    41   23   24 2
    42   23   41 1
    43   24   25 1
    44   24   42 1
