@<TRIPOS>MOLECULE
CHEMBL95229
   58    62     0     0     0
SMALL
USER_CHARGES

@<TRIPOS>ATOM
      1 C1         -0.0167    1.3781    0.0096 C.ar      1 <0>        -0.1083
      2 C2          1.1709    2.0855    0.0021 C.ar      1 <0>        -0.1223
      3 C3          2.3773    1.4107   -0.0130 C.ar      1 <0>        -0.0956
      4 C4          2.3960    0.0285   -0.0201 C.ar      1 <0>        -0.1003
      5 C5          1.2084   -0.6789   -0.0117 C.ar      1 <0>        -0.0956
      6 C6          0.0021   -0.0041    0.0020 C.ar      1 <0>        -0.1223
      7 C7          3.7112   -0.7071   -0.0376 C.3       1 <0>         0.1082
      8 O1          4.1410   -0.9464    1.3041 O.3       1 <0>        -0.3476
      9 C8          5.3041   -1.5968    1.4645 C.2       1 <0>         0.4601
     10 O2          5.9364   -1.9514    0.4979 O.2       1 <0>        -0.5068
     11 C9          5.8214   -1.8850    2.8503 C.3       1 <0>        -0.1136
     12 C10         7.1539   -2.6304    2.7526 C.3       1 <0>        -0.1102
     13 C11         7.6791   -2.9230    4.1595 C.3       1 <0>        -0.1066
     14 C12         9.0116   -3.6684    4.0618 C.3       1 <0>        -0.1343
     15 C13         9.5289   -3.9565    5.4476 C.2       1 <0>         0.5102
     16 O3          8.8943   -3.6008    6.4177 O.2       1 <0>        -0.4480
     17 N1         10.6967   -4.6097    5.6087 N.am      1 <0>        -0.6478
     18 C14        11.1709   -4.8738    6.8790 C.2       1 <0>         0.6223
     19 N2         10.4622   -4.4826    7.9043 N.2       1 <0>        -0.4668
     20 C15        10.8608   -4.7054    9.1799 C.ar      1 <0>         0.1651
     21 C16        10.0931   -4.2822   10.2684 C.ar      1 <0>        -0.0801
     22 C17        10.5255   -4.5243   11.5414 C.ar      1 <0>        -0.0639
     23 C18        11.7237   -5.1885   11.7750 C.ar      1 <0>        -0.0466
     24 C19        12.5029   -5.6182   10.7216 C.ar      1 <0>        -0.0387
     25 C20        12.0798   -5.3813    9.4155 C.ar      1 <0>        -0.0940
     26 C21        12.8630   -5.8129    8.2520 C.2       1 <0>         0.3564
     27 N3         12.3586   -5.5380    7.0086 N.pl3     1 <0>        -0.3616
     28 N4         13.2823   -6.0551    6.0903 N.2       1 <0>        -0.2891
     29 C22        14.2589   -6.6010    6.7907 C.2       1 <0>         0.3473
     30 N5         14.0055   -6.4448    8.0961 N.2       1 <0>        -0.4986
     31 C23        15.4497   -7.2678    6.2237 C.2       1 <0>         0.0386
     32 C24        15.7266   -7.4170    4.9011 C.2       1 <0>        -0.1335
     33 C25        16.9532   -8.1053    4.8183 C.2       1 <0>        -0.2194
     34 C26        17.3603   -8.3399    6.0813 C.2       1 <0>        -0.0014
     35 O4         16.4522   -7.8282    6.9277 O.3       1 <0>        -0.1526
     36 Cl1        12.2437   -5.4791   13.4056 Cl        1 <0>        -0.0495
     37 H1         -0.9591    1.9053    0.0259 H         1 <0>         0.1255
     38 H2          1.1563    3.1654    0.0076 H         1 <0>         0.1265
     39 H3          3.3051    1.9634   -0.0196 H         1 <0>         0.1243
     40 H4          1.2231   -1.7588   -0.0176 H         1 <0>         0.1243
     41 H5         -0.9258   -0.5567    0.0082 H         1 <0>         0.1264
     42 H6          3.5884   -1.6586   -0.5549 H         1 <0>         0.0776
     43 H7          4.4573   -0.1052   -0.5563 H         1 <0>         0.0776
     44 H8          5.9683   -0.9469    3.3857 H         1 <0>         0.1091
     45 H9          5.0993   -2.5004    3.3870 H         1 <0>         0.1091
     46 H10         7.0070   -3.5685    2.2173 H         1 <0>         0.0757
     47 H11         7.8760   -2.0150    2.2159 H         1 <0>         0.0757
     48 H12         7.8260   -1.9849    4.6949 H         1 <0>         0.0780
     49 H13         6.9570   -3.5383    4.6962 H         1 <0>         0.0780
     50 H14         8.8647   -4.6065    3.5265 H         1 <0>         0.1050
     51 H15         9.7337   -3.0530    3.5251 H         1 <0>         0.1050
     52 H16        11.2043   -4.8943    4.8326 H         1 <0>         0.4301
     53 H17         9.1598   -3.7644   10.1034 H         1 <0>         0.1576
     54 H18         9.9279   -4.1944   12.3783 H         1 <0>         0.1509
     55 H19        13.4335   -6.1337   10.9075 H         1 <0>         0.1542
     56 H20        15.1228   -7.0744    4.0738 H         1 <0>         0.1608
     57 H21        17.4694   -8.3912    3.9138 H         1 <0>         0.1606
     58 H22        18.2680   -8.8513    6.3656 H         1 <0>         0.2151
@<TRIPOS>BOND
     1    1    6 ar
     2    1    2 ar
     3    1   37 1
     4    2    3 ar
     5    2   38 1
     6    3    4 ar
     7    3   39 1
     8    4    5 ar
     9    4    7 1
    10    5    6 ar
    11    5   40 1
    12    6   41 1
    13    7    8 1
    14    7   42 1
    15    7   43 1
    16    8    9 1
    17    9   10 2
    18    9   11 1
    19   11   12 1
    20   11   44 1
    21   11   45 1
    22   12   13 1
    23   12   46 1
    24   12   47 1
    25   13   14 1
    26   13   48 1
    27   13   49 1
    28   14   15 1
    29   14   50 1
    30   14   51 1
    31   15   16 2
    32   15   17 am
    33   17   18 1
    34   17   52 1
    35   18   27 1
    36   18   19 2
    37   19   20 1
    38   20   25 ar
    39   20   21 ar
    40   21   22 ar
    41   21   53 1
    42   22   23 ar
    43   22   54 1
    44   23   24 ar
    45   23   36 1
    46   24   25 ar
    47   24   55 1
    48   25   26 1
    49   26   30 2
    50   26   27 1
    51   27   28 1
    52   28   29 2
    53   29   30 1
    54   29   31 1
    55   31   35 1
    56   31   32 2
    57   32   33 1
    58   32   56 1
    59   33   34 2
    60   33   57 1
    61   34   35 1
    62   34   58 1
