@<TRIPOS>MOLECULE
CHEMBL402389
   34    37     0     0     0
SMALL
USER_CHARGES

@<TRIPOS>ATOM
      1 C1         -0.0167    1.3780    0.0096 C.ar      1 <0>        -0.1361
      2 C2          1.1706    2.0866    0.0021 C.ar      1 <0>        -0.0785
      3 C3          2.3773    1.4137   -0.0131 C.ar      1 <0>        -0.1626
      4 C4          2.3974    0.0291   -0.0207 C.ar      1 <0>         0.1233
      5 C5          1.2080   -0.6793   -0.0132 C.ar      1 <0>        -0.1594
      6 C6          0.0021   -0.0041    0.0020 C.ar      1 <0>        -0.0624
      7 C7          1.2281   -2.1862   -0.0220 C.3       1 <0>         0.1872
      8 N1          1.3684   -2.6807    1.3499 N.pl3     1 <0>        -0.3814
      9 C8          2.5450   -2.9302    1.9935 C.ar      1 <0>         0.3953
     10 C9          2.2066   -3.3881    3.2842 C.ar      1 <0>        -0.2914
     11 C10         0.7982   -3.3945    3.3639 C.2       1 <0>         0.1275
     12 N2          0.3177   -2.9731    2.2287 N.2       1 <0>        -0.2474
     13 C11         3.2515   -3.7226    4.1719 C.ar      1 <0>         0.3832
     14 N3          4.5072   -3.5907    3.7502 N.ar      1 <0>        -0.5725
     15 C12         4.7767   -3.1558    2.5266 C.ar      1 <0>         0.6184
     16 N4          3.8292   -2.8309    1.6625 N.ar      1 <0>        -0.5738
     17 N5          6.1003   -3.0370    2.1389 N.pl3     1 <0>        -0.8102
     18 C13         2.9592   -4.2066    5.5345 C.2       1 <0>         0.1169
     19 N6          1.7873   -4.4058    6.1239 N.2       1 <0>        -0.4677
     20 C14         1.7099   -4.8450    7.3545 C.2       1 <0>         0.0227
     21 C15         2.8498   -5.1066    8.0545 C.2       1 <0>        -0.1912
     22 S1          4.0887   -4.6899    6.8336 S.3       1 <0>         0.0952
     23 F1          3.5766   -0.6299   -0.0360 F         1 <0>        -0.1206
     24 H1         -0.9594    1.9048    0.0260 H         1 <0>         0.1329
     25 H2          1.1547    3.1665    0.0077 H         1 <0>         0.1344
     26 H3          3.3046    1.9675   -0.0193 H         1 <0>         0.1365
     27 H4         -0.9259   -0.5565    0.0083 H         1 <0>         0.1363
     28 H5          0.2975   -2.5595   -0.4494 H         1 <0>         0.1118
     29 H6          2.0689   -2.5348   -0.6216 H         1 <0>         0.1080
     30 H7          0.2163   -3.6937    4.2231 H         1 <0>         0.2058
     31 H8          6.8098   -3.2701    2.7580 H         1 <0>         0.4186
     32 H9          6.3183   -2.7208    1.2482 H         1 <0>         0.4189
     33 H10         0.7450   -4.9995    7.8143 H         1 <0>         0.1769
     34 H11         2.9712   -5.4689    9.0646 H         1 <0>         0.2051
@<TRIPOS>BOND
     1    1    6 ar
     2    1    2 ar
     3    1   24 1
     4    2    3 ar
     5    2   25 1
     6    3    4 ar
     7    3   26 1
     8    4    5 ar
     9    4   23 1
    10    5    6 ar
    11    5    7 1
    12    6   27 1
    13    7    8 1
    14    7   28 1
    15    7   29 1
    16    8   12 1
    17    8    9 1
    18    9   16 ar
    19    9   10 ar
    20   10   11 1
    21   10   13 ar
    22   11   12 2
    23   11   30 1
    24   13   14 ar
    25   13   18 1
    26   14   15 ar
    27   15   16 ar
    28   15   17 1
    29   17   31 1
    30   17   32 1
    31   18   22 1
    32   18   19 2
    33   19   20 1
    34   20   21 2
    35   20   33 1
    36   21   22 1
    37   21   34 1
