@<TRIPOS>MOLECULE
CHEMBL461650
   31    34     0     0     0
SMALL
USER_CHARGES

@<TRIPOS>ATOM
      1 C1         -0.0162    1.3409    0.0094 C.2       1 <0>        -0.2212
      2 C2          1.3313    1.7689   -0.0012 C.2       1 <0>        -0.1663
      3 C3          2.0923    0.6599   -0.0144 C.2       1 <0>        -0.0581
      4 O1          1.2819   -0.4111   -0.0124 O.3       1 <0>        -0.1663
      5 C4          0.0021   -0.0041    0.0020 C.2       1 <0>        -0.0184
      6 C5          3.5989    0.6249   -0.0294 C.3       1 <0>         0.2216
      7 N1          4.1006    0.6065    1.3469 N.pl3     1 <0>        -0.3877
      8 C6          4.4009    1.6925    2.1220 C.ar      1 <0>         0.3647
      9 C7          4.8421    1.1793    3.3556 C.ar      1 <0>        -0.1551
     10 C8          5.2232    2.0986    4.3601 C.ar      1 <0>         0.4103
     11 N2          5.1465    3.4010    4.0915 N.ar      1 <0>        -0.5500
     12 C9          4.7237    3.8342    2.9119 C.ar      1 <0>         0.6227
     13 N3          4.3579    3.0091    1.9441 N.ar      1 <0>        -0.5804
     14 N4          4.6630    5.1985    2.6844 N.pl3     1 <0>        -0.8023
     15 C10         5.6936    1.6271    5.6731 C.2       1 <0>        -0.0088
     16 C11         6.6514    2.2198    6.4402 C.2       1 <0>        -0.1216
     17 C12         6.7807    1.4377    7.6021 C.2       1 <0>        -0.2249
     18 C13         5.9061    0.4162    7.4915 C.2       1 <0>         0.0020
     19 O2          5.2478    0.5370    6.3289 O.3       1 <0>        -0.1492
     20 N5          4.7944   -0.1608    3.2845 N.2       1 <0>        -0.1646
     21 N6          4.3613   -0.5287    2.1293 N.2       1 <0>         0.0065
     22 H1         -0.8920    1.9726    0.0252 H         1 <0>         0.1527
     23 H2          1.6822    2.7903    0.0004 H         1 <0>         0.1531
     24 H3         -0.8653   -0.6475    0.0072 H         1 <0>         0.2078
     25 H4          3.9364   -0.2706   -0.5512 H         1 <0>         0.1237
     26 H5          3.9777    1.5089   -0.5424 H         1 <0>         0.1344
     27 H6          4.9273    5.8187    3.3818 H         1 <0>         0.4224
     28 H7          4.3562    5.5341    1.8276 H         1 <0>         0.4209
     29 H8          7.2043    3.1164    6.2020 H         1 <0>         0.1598
     30 H9          7.4532    1.6204    8.4272 H         1 <0>         0.1588
     31 H10         5.7573   -0.3666    8.2205 H         1 <0>         0.2135
@<TRIPOS>BOND
     1    1    5 2
     2    1    2 1
     3    1   22 1
     4    2    3 2
     5    2   23 1
     6    3    4 1
     7    3    6 1
     8    4    5 1
     9    5   24 1
    10    6    7 1
    11    6   25 1
    12    6   26 1
    13    7   21 1
    14    7    8 1
    15    8   13 ar
    16    8    9 ar
    17    9   10 ar
    18    9   20 1
    19   10   11 ar
    20   10   15 1
    21   11   12 ar
    22   12   13 ar
    23   12   14 1
    24   14   27 1
    25   14   28 1
    26   15   19 1
    27   15   16 2
    28   16   17 1
    29   16   29 1
    30   17   18 2
    31   17   30 1
    32   18   19 1
    33   18   31 1
    34   20   21 2
