@<TRIPOS>MOLECULE
CHEMBL605667
   46    49     0     0     0
SMALL
USER_CHARGES

@<TRIPOS>ATOM
      1 C1         -0.0163    1.3513    0.0095 C.2       1 <0>        -0.1580
      2 C2          1.1833    2.0380    0.0017 C.2       1 <0>        -0.1494
      3 C3          2.3426    1.3358   -0.0131 C.2       1 <0>        -0.1438
      4 S1          1.7535   -0.3495   -0.0166 S.3       1 <0>         0.0405
      5 C4          0.0021   -0.0041    0.0020 C.2       1 <0>        -0.1700
      6 C5          3.7608    1.8454   -0.0244 C.3       1 <0>        -0.0350
      7 C6          4.2547    2.0106    1.4143 C.3       1 <0>         0.0835
      8 O1          5.5995    2.4938    1.4036 O.3       1 <0>        -0.2852
      9 C7          6.1902    2.6958    2.6063 C.ar      1 <0>         0.5689
     10 N1          5.5024    2.4335    3.7086 N.ar      1 <0>        -0.6309
     11 C8          6.0367    2.6149    4.9112 C.ar      1 <0>         0.5423
     12 C9          7.3556    3.0940    4.9949 C.ar      1 <0>        -0.1296
     13 C10         8.0445    3.3578    3.7999 C.ar      1 <0>         0.3410
     14 N2          7.4332    3.1421    2.6390 N.ar      1 <0>        -0.5672
     15 N3          9.2871    3.8060    4.1702 N.pl3     1 <0>        -0.4596
     16 C11         9.3317    3.8074    5.5336 C.2       1 <0>         0.2844
     17 N4          8.1977    3.3895    6.0153 N.2       1 <0>        -0.4614
     18 C12        10.3681    4.2085    3.2671 C.3       1 <0>         0.3165
     19 C13        10.2366    5.7096    2.9063 C.3       1 <0>         0.0750
     20 H1          9.5785    5.8514    2.0490 H         1 <0>         0.0983
     21 C14        11.7071    6.0562    2.5464 C.3       1 <0>         0.0486
     22 H2         11.9249    5.7955    1.5107 H         1 <0>         0.0917
     23 C15        12.5026    5.1581    3.5180 C.3       1 <0>         0.0599
     24 H3         12.8119    5.7375    4.3879 H         1 <0>         0.1082
     25 O2         11.6387    4.0913    3.9269 O.3       1 <0>        -0.3495
     26 C16        13.7334    4.5892    2.8092 C.3       1 <0>         0.0646
     27 O3         14.5252    3.8550    3.7451 O.3       1 <0>        -0.5615
     28 O4         11.9776    7.4384    2.7882 O.3       1 <0>        -0.5428
     29 O5          9.7868    6.4715    4.0284 O.3       1 <0>        -0.5336
     30 N5          5.3108    2.3387    6.0563 N.pl3     1 <0>        -0.8121
     31 H4         -0.9542    1.8866    0.0258 H         1 <0>         0.1350
     32 H5          1.1967    3.1179    0.0070 H         1 <0>         0.1346
     33 H6         -0.8275   -0.6955    0.0065 H         1 <0>         0.1864
     34 H7          4.3986    1.1333   -0.5480 H         1 <0>         0.0924
     35 H8          3.7967    2.8084   -0.5337 H         1 <0>         0.0994
     36 H9          3.6169    2.7226    1.9379 H         1 <0>         0.0760
     37 H10         4.2187    1.0476    1.9236 H         1 <0>         0.0751
     38 H11        10.1825    4.1107    6.1256 H         1 <0>         0.2208
     39 H12        10.3530    3.5981    2.3642 H         1 <0>         0.1281
     40 H13        13.4152    3.9269    2.0041 H         1 <0>         0.0556
     41 H14        14.3244    5.4062    2.3954 H         1 <0>         0.0614
     42 H15        15.3238    3.4650    3.3641 H         1 <0>         0.3843
     43 H16        12.8834    7.7044    2.5788 H         1 <0>         0.3906
     44 H17         9.6900    7.4168    3.8487 H         1 <0>         0.3936
     45 H18         4.4013    2.0088    5.9862 H         1 <0>         0.4109
     46 H19         5.7114    2.4751    6.9291 H         1 <0>         0.4223
@<TRIPOS>BOND
     1    1    5 2
     2    1    2 1
     3    1   31 1
     4    2    3 2
     5    2   32 1
     6    3    4 1
     7    3    6 1
     8    4    5 1
     9    5   33 1
    10    6    7 1
    11    6   34 1
    12    6   35 1
    13    7    8 1
    14    7   36 1
    15    7   37 1
    16    8    9 1
    17    9   14 ar
    18    9   10 ar
    19   10   11 ar
    20   11   12 ar
    21   11   30 1
    22   12   17 1
    23   12   13 ar
    24   13   14 ar
    25   13   15 1
    26   15   16 1
    27   15   18 1
    28   16   17 2
    29   16   38 1
    30   18   25 1
    31   18   19 1
    32   18   39 1
    33   19   20 1
    34   19   21 1
    35   19   29 1
    36   21   22 1
    37   21   23 1
    38   21   28 1
    39   23   24 1
    40   23   25 1
    41   23   26 1
    42   26   27 1
    43   26   40 1
    44   26   41 1
    45   27   42 1
    46   28   43 1
    47   29   44 1
    48   30   45 1
    49   30   46 1
