@<TRIPOS>MOLECULE
CHEMBL362253
   29    32     0     0     0
SMALL
USER_CHARGES

@<TRIPOS>ATOM
      1 C1         -0.0162    1.3434    0.0094 C.2       1 <0>        -0.2190
      2 C2          1.3252    1.7744   -0.0011 C.2       1 <0>        -0.1258
      3 C3          2.0961    0.6548   -0.0144 C.2       1 <0>         0.0356
      4 O1          1.2797   -0.4165   -0.0124 O.3       1 <0>        -0.1605
      5 C4          0.0021   -0.0041    0.0020 C.2       1 <0>        -0.0071
      6 C5          3.5736    0.6193   -0.0292 C.2       1 <0>         0.3552
      7 N1          4.3724    1.6915   -0.0257 N.2       1 <0>        -0.5215
      8 C6          5.6382    1.3016   -0.0416 C.2       1 <0>         0.3563
      9 C7          6.8641    1.9876   -0.0465 C.2       1 <0>        -0.2143
     10 C8          8.0359    1.2454   -0.0656 C.2       1 <0>         0.2965
     11 N2          7.9820   -0.0975   -0.0793 N.2       1 <0>        -0.5464
     12 C9          6.8374   -0.7406   -0.0747 C.2       1 <0>         0.6585
     13 N3          5.6514   -0.0706   -0.0558 N.pl3     1 <0>        -0.3626
     14 N4          4.3107   -0.4765   -0.0421 N.2       1 <0>        -0.3195
     15 N5          6.8358   -2.1159   -0.0893 N.pl3     1 <0>        -0.8054
     16 C10         9.3419    1.9304   -0.0712 C.2       1 <0>        -0.1411
     17 C11        10.6015    1.3890   -0.0947 C.2       1 <0>        -0.0921
     18 C12        11.6855    2.2365   -0.0957 C.2       1 <0>        -0.1692
     19 C13        11.4766    3.5791   -0.0735 C.2       1 <0>        -0.1535
     20 S1          9.6944    3.6806   -0.0573 S.3       1 <0>         0.0980
     21 H1         -0.8931    1.9736    0.0252 H         1 <0>         0.1599
     22 H2          1.6735    2.7967    0.0006 H         1 <0>         0.1635
     23 H3         -0.8667   -0.6456    0.0069 H         1 <0>         0.2136
     24 H4          6.8936    3.0671   -0.0360 H         1 <0>         0.1651
     25 H5          7.6752   -2.6018   -0.1028 H         1 <0>         0.4303
     26 H6          5.9952   -2.5999   -0.0861 H         1 <0>         0.4254
     27 H7         10.7401    0.3180   -0.1117 H         1 <0>         0.1450
     28 H8         12.6898    1.8396   -0.1136 H         1 <0>         0.1417
     29 H9         12.2022    4.3791   -0.0708 H         1 <0>         0.1933
@<TRIPOS>BOND
     1    1    5 2
     2    1    2 1
     3    1   21 1
     4    2    3 2
     5    2   22 1
     6    3    4 1
     7    3    6 1
     8    4    5 1
     9    5   23 1
    10    6   14 2
    11    6    7 1
    12    7    8 2
    13    8   13 1
    14    8    9 1
    15    9   10 2
    16    9   24 1
    17   10   11 1
    18   10   16 1
    19   11   12 2
    20   12   13 1
    21   12   15 1
    22   13   14 1
    23   15   25 1
    24   15   26 1
    25   16   20 1
    26   16   17 2
    27   17   18 1
    28   17   27 1
    29   18   19 2
    30   18   28 1
    31   19   20 1
    32   19   29 1
