@<TRIPOS>MOLECULE
CHEMBL510959
   71    77     0     0     0
SMALL
USER_CHARGES

@<TRIPOS>ATOM
      1 C1          0.3314    1.4818   -0.1152 C.3       1 <0>         0.0264
      2 O1          0.2872    0.0536   -0.0991 O.3       1 <0>        -0.3066
      3 C2          0.8483   -0.5694    0.9716 C.ar      1 <0>         0.1046
      4 C3          1.4231    0.1749    1.9866 C.ar      1 <0>        -0.1741
      5 C4          1.9983   -0.4558    3.0796 C.ar      1 <0>        -0.0586
      6 C5          2.0009   -1.8326    3.1579 C.ar      1 <0>        -0.0631
      7 C6          1.4228   -2.5829    2.1442 C.ar      1 <0>        -0.1656
      8 C7          0.8421   -1.9585    1.0546 C.ar      1 <0>         0.0988
      9 O2          0.2726   -2.6992    0.0665 O.3       1 <0>        -0.3054
     10 C8          0.3040   -4.1196    0.2202 C.3       1 <0>         0.0255
     11 C9          2.6244   -2.5610    4.3199 C.3       1 <0>         0.1376
     12 N1          2.8062   -1.6536    5.4572 N.3       1 <0>        -0.5159
     13 C10         3.5345   -0.4467    5.0349 C.3       1 <0>         0.0489
     14 C11         2.6073    0.3989    4.1617 C.3       1 <0>        -0.0713
     15 C12         3.5002   -2.3276    6.5627 C.3       1 <0>         0.0318
     16 C13         3.3375   -1.5063    7.8433 C.3       1 <0>         0.1420
     17 N2          4.1228   -2.1175    8.9185 N.pl3     1 <0>        -0.3543
     18 C14         3.6560   -3.0000    9.8459 C.2       1 <0>         0.3723
     19 C15         4.7426   -3.3214   10.6736 C.2       1 <0>        -0.2672
     20 C16         5.8549   -2.6014   10.2021 C.2       1 <0>         0.1319
     21 N3          5.4838   -1.8999    9.1663 N.2       1 <0>        -0.2637
     22 C17         4.5159   -4.2634   11.7701 C.2       1 <0>         0.4063
     23 N4          5.2753   -4.7789   12.7144 N.2       1 <0>        -0.5162
     24 C18         4.5481   -5.6081   13.4739 C.2       1 <0>         0.3507
     25 N5          3.3077   -5.6347   13.0240 N.2       1 <0>        -0.2993
     26 N6          3.2528   -4.7741   11.9202 N.pl3     1 <0>        -0.3762
     27 C19         2.2597   -4.4001   11.0622 C.2       1 <0>         0.6929
     28 N7          2.4594   -3.5568   10.0793 N.2       1 <0>        -0.5599
     29 N8          1.0016   -4.9280   11.2359 N.pl3     1 <0>        -0.8015
     30 C20         5.0545   -6.3726   14.6329 C.2       1 <0>         0.0420
     31 C21         4.3281   -7.2211   15.4079 C.2       1 <0>        -0.1370
     32 C22         5.2050   -7.7268   16.3881 C.2       1 <0>        -0.2199
     33 C23         6.4107   -7.1679   16.1652 C.2       1 <0>        -0.0041
     34 O3          6.3174   -6.3543   15.1012 O.3       1 <0>        -0.1522
     35 C24         1.7145   -3.7180    4.7375 C.3       1 <0>        -0.0774
     36 C25         0.3821   -3.1734    5.1835 C.ar      1 <0>        -0.0632
     37 C26         0.2198   -2.7186    6.4788 C.ar      1 <0>        -0.0897
     38 C27        -1.0024   -2.2191    6.8880 C.ar      1 <0>        -0.1225
     39 C28        -2.0623   -2.1739    6.0017 C.ar      1 <0>        -0.1235
     40 C29        -1.8998   -2.6277    4.7062 C.ar      1 <0>        -0.1223
     41 C30        -0.6764   -3.1233    4.2958 C.ar      1 <0>        -0.1107
     42 H1          1.3695    1.8135   -0.0942 H         1 <0>         0.0545
     43 H2         -0.1494    1.8500   -1.0215 H         1 <0>         0.1007
     44 H3         -0.1923    1.8714    0.7578 H         1 <0>         0.0547
     45 H4          1.4241    1.2532    1.9271 H         1 <0>         0.1339
     46 H5          1.4226   -3.6611    2.2079 H         1 <0>         0.1342
     47 H6         -0.1826   -4.5885   -0.6351 H         1 <0>         0.1013
     48 H7          1.3392   -4.4559    0.2787 H         1 <0>         0.0541
     49 H8         -0.2206   -4.3979    1.1343 H         1 <0>         0.0532
     50 H9          3.5937   -2.9574    4.0176 H         1 <0>         0.0587
     51 H10         3.8342    0.1260    5.9126 H         1 <0>         0.0843
     52 H11         4.4166   -0.7330    4.4622 H         1 <0>         0.0443
     53 H12         3.1779    1.2079    3.7056 H         1 <0>         0.0783
     54 H13         1.8142    0.8208    4.7790 H         1 <0>         0.0851
     55 H14         3.0719   -3.3190    6.7100 H         1 <0>         0.0867
     56 H15         4.5595   -2.4213    6.3233 H         1 <0>         0.0510
     57 H16         3.6888   -0.4892    7.6697 H         1 <0>         0.1013
     58 H17         2.2859   -1.4836    8.1292 H         1 <0>         0.1097
     59 H18         6.8490   -2.6279   10.6235 H         1 <0>         0.2018
     60 H19         0.8336   -5.5536   11.9578 H         1 <0>         0.4263
     61 H20         0.2823   -4.6746   10.6364 H         1 <0>         0.4308
     62 H21         3.2812   -7.4608   15.2945 H         1 <0>         0.1599
     63 H22         4.9574   -8.4292   17.1702 H         1 <0>         0.1594
     64 H23         7.3047   -7.3476   16.7439 H         1 <0>         0.2141
     65 H24         1.5679   -4.3887    3.8909 H         1 <0>         0.0773
     66 H25         2.1767   -4.2654    5.5589 H         1 <0>         0.0765
     67 H26         1.0479   -2.7540    7.1712 H         1 <0>         0.1202
     68 H27        -1.1294   -1.8645    7.9002 H         1 <0>         0.1160
     69 H28        -3.0175   -1.7842    6.3216 H         1 <0>         0.1151
     70 H29        -2.7280   -2.5927    4.0138 H         1 <0>         0.1147
     71 H30        -0.5484   -3.4745    3.2825 H         1 <0>         0.1116
@<TRIPOS>BOND
     1    1    2 1
     2    1   42 1
     3    1   43 1
     4    1   44 1
     5    2    3 1
     6    3    8 ar
     7    3    4 ar
     8    4    5 ar
     9    4   45 1
    10    5   14 1
    11    5    6 ar
    12    6    7 ar
    13    6   11 1
    14    7    8 ar
    15    7   46 1
    16    8    9 1
    17    9   10 1
    18   10   47 1
    19   10   48 1
    20   10   49 1
    21   11   12 1
    22   11   35 1
    23   11   50 1
    24   12   13 1
    25   12   15 1
    26   13   14 1
    27   13   51 1
    28   13   52 1
    29   14   53 1
    30   14   54 1
    31   15   16 1
    32   15   55 1
    33   15   56 1
    34   16   17 1
    35   16   57 1
    36   16   58 1
    37   17   21 1
    38   17   18 1
    39   18   28 1
    40   18   19 2
    41   19   20 1
    42   19   22 1
    43   20   21 2
    44   20   59 1
    45   22   26 1
    46   22   23 2
    47   23   24 1
    48   24   25 2
    49   24   30 1
    50   25   26 1
    51   26   27 1
    52   27   28 2
    53   27   29 1
    54   29   60 1
    55   29   61 1
    56   30   34 1
    57   30   31 2
    58   31   32 1
    59   31   62 1
    60   32   33 2
    61   32   63 1
    62   33   34 1
    63   33   64 1
    64   35   36 1
    65   35   65 1
    66   35   66 1
    67   36   41 ar
    68   36   37 ar
    69   37   38 ar
    70   37   67 1
    71   38   39 ar
    72   38   68 1
    73   39   40 ar
    74   39   69 1
    75   40   41 ar
    76   40   70 1
    77   41   71 1
