@<TRIPOS>MOLECULE
CHEMBL604652
   46    49     0     0     0
SMALL
USER_CHARGES

@<TRIPOS>ATOM
      1 C1         -0.0158    1.3162    0.0093 C.2       1 <0>         0.0638
      2 C2          1.1831    1.9486    0.0012 C.2       1 <0>        -0.2441
      3 S1          2.2958    0.5525   -0.0169 S.3       1 <0>         0.1254
      4 C3          1.1374   -0.6684   -0.0124 C.2       1 <0>         0.2802
      5 N1          0.0021   -0.0041    0.0020 N.2       1 <0>        -0.5224
      6 N2          1.3328   -2.0444   -0.0216 N.am      1 <0>        -0.6141
      7 C4          0.2720   -2.8757   -0.0160 C.2       1 <0>         0.7364
      8 O1         -0.8556   -2.4221   -0.0028 O.2       1 <0>        -0.4930
      9 N3          0.4615   -4.2101   -0.0250 N.am      1 <0>        -0.5488
     10 N4          1.7612   -4.7329   -0.0402 N.2       1 <0>         0.1008
     11 N5          1.9426   -6.0101   -0.0488 N.2       1 <0>        -0.2318
     12 C5          3.2122   -6.5208   -0.0636 C.ar      1 <0>         0.5413
     13 N6          4.2437   -5.6801   -0.0635 N.ar      1 <0>        -0.5875
     14 C6          5.4925   -6.1276   -0.0776 C.ar      1 <0>         0.5207
     15 C7          5.7095   -7.5178   -0.0928 C.ar      1 <0>        -0.0898
     16 C8          4.5897   -8.3682   -0.0923 C.ar      1 <0>         0.3212
     17 N7          3.3734   -7.8370   -0.0722 N.ar      1 <0>        -0.4931
     18 N8          5.0865   -9.6476   -0.1086 N.pl3     1 <0>        -0.4659
     19 C9          6.4468   -9.5572   -0.1183 C.2       1 <0>         0.2761
     20 N9          6.8097   -8.3072   -0.1090 N.2       1 <0>        -0.4571
     21 C10         4.2995  -10.8833   -0.1144 C.3       1 <0>         0.3111
     22 C11         3.9602  -11.2980   -1.5633 C.3       1 <0>         0.0786
     23 H1          4.6863  -10.8795   -2.2603 H         1 <0>         0.0865
     24 C12         4.0545  -12.8401   -1.5443 C.3       1 <0>         0.0475
     25 H2          4.8272  -13.1840   -2.2319 H         1 <0>         0.0878
     26 C13         4.4396  -13.1747   -0.0862 C.3       1 <0>         0.0505
     27 H3          3.5482  -13.3983    0.4999 H         1 <0>         0.1011
     28 O2          5.0805  -11.9792    0.4098 O.3       1 <0>        -0.3463
     29 C14         5.4103  -14.3567   -0.0496 C.3       1 <0>         0.0821
     30 O3          5.6625  -14.7240    1.3082 O.3       1 <0>        -0.5635
     31 O4          2.7933  -13.4229   -1.8784 O.3       1 <0>        -0.5384
     32 O5          2.6383  -10.8786   -1.9076 O.3       1 <0>        -0.5250
     33 N10         6.5591   -5.2458   -0.0779 N.pl3     1 <0>        -0.8116
     34 H4         -0.9443    1.8676    0.0255 H         1 <0>         0.1779
     35 H5          1.4042    3.0057    0.0048 H         1 <0>         0.2009
     36 H6          2.2327   -2.4064   -0.0322 H         1 <0>         0.4355
     37 H7         -0.3019   -4.8084   -0.0209 H         1 <0>         0.4210
     38 H8          7.1236  -10.3988   -0.1318 H         1 <0>         0.2284
     39 H9          3.3876  -10.7543    0.4686 H         1 <0>         0.1271
     40 H10         4.9728  -15.2027   -0.5796 H         1 <0>         0.0674
     41 H11         6.3470  -14.0726   -0.5291 H         1 <0>         0.0613
     42 H12         6.2713  -15.4687    1.4076 H         1 <0>         0.3871
     43 H13         2.7954  -14.3899   -1.8815 H         1 <0>         0.3879
     44 H14         2.3730  -11.1133   -2.8074 H         1 <0>         0.3917
     45 H15         6.3977   -4.2894   -0.0676 H         1 <0>         0.4130
     46 H16         7.4681   -5.5842   -0.0882 H         1 <0>         0.4220
@<TRIPOS>BOND
     1    1    5 1
     2    1    2 2
     3    1   34 1
     4    2    3 1
     5    2   35 1
     6    3    4 1
     7    4    5 2
     8    4    6 1
     9    6    7 am
    10    6   36 1
    11    7    8 2
    12    7    9 am
    13    9   10 1
    14    9   37 1
    15   10   11 2
    16   11   12 1
    17   12   17 ar
    18   12   13 ar
    19   13   14 ar
    20   14   15 ar
    21   14   33 1
    22   15   20 1
    23   15   16 ar
    24   16   17 ar
    25   16   18 1
    26   18   19 1
    27   18   21 1
    28   19   20 2
    29   19   38 1
    30   21   28 1
    31   21   22 1
    32   21   39 1
    33   22   23 1
    34   22   24 1
    35   22   32 1
    36   24   25 1
    37   24   26 1
    38   24   31 1
    39   26   27 1
    40   26   28 1
    41   26   29 1
    42   29   30 1
    43   29   40 1
    44   29   41 1
    45   30   42 1
    46   31   43 1
    47   32   44 1
    48   33   45 1
    49   33   46 1
