@<TRIPOS>MOLECULE
CHEMBL97748
   45    49     0     0     0
SMALL
USER_CHARGES

@<TRIPOS>ATOM
      1 C1         -0.0162    1.3433    0.0094 C.2       1 <0>        -0.2195
      2 C2          1.3252    1.7744   -0.0011 C.2       1 <0>        -0.1340
      3 C3          2.0962    0.6548   -0.0144 C.2       1 <0>         0.0394
      4 O1          1.2797   -0.4166   -0.0124 O.3       1 <0>        -0.1526
      5 C4          0.0021   -0.0041    0.0020 C.2       1 <0>        -0.0020
      6 C5          3.5736    0.6192   -0.0292 C.2       1 <0>         0.3463
      7 N1          4.3225   -0.4904   -0.0477 N.2       1 <0>        -0.4992
      8 C6          5.5961   -0.1641   -0.0572 C.2       1 <0>         0.3564
      9 C7          6.8501   -0.9259   -0.0778 C.ar      1 <0>        -0.0949
     10 C8          6.8697   -2.3188   -0.0923 C.ar      1 <0>        -0.0385
     11 C9          8.0799   -2.9796   -0.1119 C.ar      1 <0>        -0.0474
     12 C10         9.2729   -2.2668   -0.1171 C.ar      1 <0>        -0.0640
     13 C11         9.2752   -0.9008   -0.1031 C.ar      1 <0>        -0.0806
     14 C12         8.0647   -0.2027   -0.0832 C.ar      1 <0>         0.1664
     15 N2          8.0298    1.1517   -0.0694 N.2       1 <0>        -0.4667
     16 C13         6.9047    1.8152   -0.0511 C.2       1 <0>         0.6232
     17 N3          5.6826    1.2028   -0.0446 N.pl3     1 <0>        -0.3612
     18 N4          4.3638    1.6765   -0.0320 N.2       1 <0>        -0.2888
     19 N5          6.9520    3.1958   -0.0375 N.am      1 <0>        -0.6484
     20 C14         8.1415    3.8294   -0.0431 C.2       1 <0>         0.5068
     21 O2          9.1702    3.1877   -0.0601 O.2       1 <0>        -0.4361
     22 C15         8.1931    5.3355   -0.0282 C.3       1 <0>        -0.0831
     23 C16         9.6302    5.7890   -0.0381 C.ar      1 <0>        -0.1385
     24 C17        10.3019    5.9789    1.1556 C.ar      1 <0>        -0.0506
     25 C18        11.6189    6.3944    1.1501 C.ar      1 <0>        -0.1976
     26 C19        12.2688    6.6217   -0.0564 C.ar      1 <0>         0.2221
     27 C20        11.5911    6.4300   -1.2537 C.ar      1 <0>        -0.1977
     28 C21        10.2759    6.0089   -1.2410 C.ar      1 <0>        -0.0507
     29 N6         13.6007    7.0425   -0.0656 N.pl3     1 <0>        -0.8782
     30 Cl1         8.1133   -4.7152   -0.1295 Cl        1 <0>        -0.0503
     31 H1         -0.8931    1.9736    0.0252 H         1 <0>         0.1604
     32 H2          1.6736    2.7966    0.0008 H         1 <0>         0.1609
     33 H3         -0.8667   -0.6456    0.0072 H         1 <0>         0.2149
     34 H4          5.9448   -2.8765   -0.0880 H         1 <0>         0.1540
     35 H5         10.2117   -2.8006   -0.1321 H         1 <0>         0.1504
     36 H6         10.2108   -0.3614   -0.1070 H         1 <0>         0.1571
     37 H7          6.1291    3.7092   -0.0239 H         1 <0>         0.4291
     38 H8          7.6830    5.7252   -0.9091 H         1 <0>         0.1083
     39 H9          7.7010    5.7070    0.8707 H         1 <0>         0.1083
     40 H10         9.7959    5.8023    2.0933 H         1 <0>         0.1194
     41 H11        12.1429    6.5429    2.0828 H         1 <0>         0.1203
     42 H12        12.0933    6.6061   -2.1934 H         1 <0>         0.1203
     43 H13         9.7497    5.8554   -2.1716 H         1 <0>         0.1194
     44 H14        14.0728    7.1763    0.7712 H         1 <0>         0.3986
     45 H15        14.0534    7.2009   -0.9086 H         1 <0>         0.3986
@<TRIPOS>BOND
     1    1    5 2
     2    1    2 1
     3    1   31 1
     4    2    3 2
     5    2   32 1
     6    3    4 1
     7    3    6 1
     8    4    5 1
     9    5   33 1
    10    6   18 2
    11    6    7 1
    12    7    8 2
    13    8   17 1
    14    8    9 1
    15    9   14 ar
    16    9   10 ar
    17   10   11 ar
    18   10   34 1
    19   11   12 ar
    20   11   30 1
    21   12   13 ar
    22   12   35 1
    23   13   14 ar
    24   13   36 1
    25   14   15 1
    26   15   16 2
    27   16   17 1
    28   16   19 1
    29   17   18 1
    30   19   20 am
    31   19   37 1
    32   20   21 2
    33   20   22 1
    34   22   23 1
    35   22   38 1
    36   22   39 1
    37   23   28 ar
    38   23   24 ar
    39   24   25 ar
    40   24   40 1
    41   25   26 ar
    42   25   41 1
    43   26   27 ar
    44   26   29 1
    45   27   28 ar
    46   27   42 1
    47   28   43 1
    48   29   44 1
    49   29   45 1
