@<TRIPOS>MOLECULE
CHEMBL511405
   34    37     0     0     0
SMALL
USER_CHARGES

@<TRIPOS>ATOM
      1 C1         -0.0167    1.3780    0.0096 C.ar      1 <0>        -0.1348
      2 C2          1.1706    2.0866    0.0021 C.ar      1 <0>        -0.0753
      3 C3          2.3773    1.4137   -0.0131 C.ar      1 <0>        -0.1617
      4 C4          2.3974    0.0291   -0.0207 C.ar      1 <0>         0.1248
      5 C5          1.2080   -0.6793   -0.0132 C.ar      1 <0>        -0.1637
      6 C6          0.0021   -0.0041    0.0020 C.ar      1 <0>        -0.0616
      7 C7          1.2281   -2.1862   -0.0220 C.3       1 <0>         0.1807
      8 N1          1.3684   -2.6807    1.3499 N.pl3     1 <0>        -0.3839
      9 C8          2.5380   -2.9362    2.0110 C.ar      1 <0>         0.3639
     10 C9          2.1698   -3.3889    3.2910 C.ar      1 <0>        -0.1621
     11 C10         3.2003   -3.7301    4.1974 C.ar      1 <0>         0.4192
     12 N2          4.4648   -3.6070    3.7975 N.ar      1 <0>        -0.5564
     13 C11         4.7596   -3.1752    2.5790 C.ar      1 <0>         0.6200
     14 N3          3.8273   -2.8453    1.6998 N.ar      1 <0>        -0.5748
     15 N4          6.0904   -3.0655    2.2136 N.pl3     1 <0>        -0.8041
     16 C12         2.8826   -4.2101    5.5525 C.2       1 <0>        -0.1966
     17 C13         3.5472   -5.1464    6.3239 C.2       1 <0>        -0.0770
     18 C14         3.0060   -5.3908    7.5670 C.2       1 <0>        -0.1847
     19 C15         1.8924   -4.7193    7.9425 C.2       1 <0>        -0.2354
     20 S1          1.5458   -3.7302    6.6297 S.3       1 <0>         0.2614
     21 N5          0.8286   -3.3911    3.3568 N.2       1 <0>        -0.1719
     22 N6          0.3291   -2.9789    2.2442 N.2       1 <0>        -0.0001
     23 F1          3.5766   -0.6299   -0.0360 F         1 <0>        -0.1206
     24 H1         -0.9594    1.9048    0.0260 H         1 <0>         0.1348
     25 H2          1.1547    3.1665    0.0077 H         1 <0>         0.1359
     26 H3          3.3046    1.9675   -0.0193 H         1 <0>         0.1378
     27 H4         -0.9259   -0.5565    0.0083 H         1 <0>         0.1384
     28 H5          0.2975   -2.5595   -0.4494 H         1 <0>         0.1192
     29 H6          2.0689   -2.5348   -0.6216 H         1 <0>         0.1132
     30 H7          6.7878   -3.3027    2.8446 H         1 <0>         0.4208
     31 H8          6.3255   -2.7514    1.3264 H         1 <0>         0.4201
     32 H9          4.4339   -5.6539    5.9737 H         1 <0>         0.1472
     33 H10         3.4636   -6.1081    8.2322 H         1 <0>         0.1375
     34 H11         1.3526   -4.7982    8.8747 H         1 <0>         0.1899
@<TRIPOS>BOND
     1    1    6 ar
     2    1    2 ar
     3    1   24 1
     4    2    3 ar
     5    2   25 1
     6    3    4 ar
     7    3   26 1
     8    4    5 ar
     9    4   23 1
    10    5    6 ar
    11    5    7 1
    12    6   27 1
    13    7    8 1
    14    7   28 1
    15    7   29 1
    16    8   22 1
    17    8    9 1
    18    9   14 ar
    19    9   10 ar
    20   10   11 ar
    21   10   21 1
    22   11   12 ar
    23   11   16 1
    24   12   13 ar
    25   13   14 ar
    26   13   15 1
    27   15   30 1
    28   15   31 1
    29   16   20 1
    30   16   17 2
    31   17   18 1
    32   17   32 1
    33   18   19 2
    34   18   33 1
    35   19   20 1
    36   19   34 1
    37   21   22 2
