@<TRIPOS>MOLECULE
CHEMBL366472
   57    61     0     0     0
SMALL
USER_CHARGES

@<TRIPOS>ATOM
      1 C1         -0.0184    1.5028    0.0103 C.3       1 <0>        -0.1043
      2 C2          0.0021   -0.0041    0.0020 C.2       1 <0>         0.1166
      3 C3         -1.0767   -0.8104    0.0026 C.2       1 <0>        -0.2946
      4 C4         -0.6269   -2.1430   -0.0073 C.2       1 <0>         0.0513
      5 N1          0.6760   -2.1297   -0.0134 N.2       1 <0>        -0.2968
      6 O1          1.0981   -0.7779   -0.0131 O.3       1 <0>        -0.0437
      7 C5         -1.4995   -3.3716   -0.0097 C.3       1 <0>         0.0520
      8 N2         -1.6917   -3.8330   -1.3910 N.4       1 <0>        -0.3805
      9 C6         -2.4351   -2.8169   -2.1457 C.3       1 <0>        -0.0134
     10 C7         -3.7674   -2.5321   -1.4490 C.3       1 <0>        -0.1470
     11 C8         -4.5886   -3.8230   -1.3823 C.3       1 <0>        -0.1364
     12 C9         -3.7732   -4.8981   -0.6580 C.3       1 <0>        -0.1387
     13 C10        -2.4407   -5.0953   -1.3840 C.3       1 <0>         0.0070
     14 H1         -2.6297   -5.4109   -2.4100 H         1 <0>         0.1553
     15 C11        -1.6224   -6.1691   -0.6640 C.3       1 <0>         0.1049
     16 N3         -0.3014   -6.2767   -1.2882 N.pl3     1 <0>        -0.6053
     17 C12         0.8080   -5.4529   -0.8016 C.3       1 <0>         0.0549
     18 C13        -0.1036   -7.1476   -2.3267 C.2       1 <0>         0.6548
     19 N4          1.1429   -7.2404   -2.8973 N.pl3     1 <0>        -0.7056
     20 C14         1.4820   -8.4081   -3.5804 C.2       1 <0>         0.6288
     21 N5          0.4016   -9.0515   -4.1615 N.pl3     1 <0>        -0.3814
     22 C15        -0.8825   -8.7834   -3.7338 C.2       1 <0>         0.4978
     23 N6         -1.1154   -7.8844   -2.7543 N.2       1 <0>        -0.5300
     24 N7         -1.6928   -9.5313   -4.4378 N.2       1 <0>        -0.4775
     25 C16        -0.9830  -10.2691   -5.3109 C.2       1 <0>         0.3299
     26 N8          0.3034   -9.9971   -5.1685 N.2       1 <0>        -0.2420
     27 C17        -1.5515  -11.2323   -6.2766 C.2       1 <0>         0.0327
     28 C18        -2.8713  -11.5170   -6.4366 C.2       1 <0>        -0.1253
     29 C19        -2.9570  -12.4834   -7.4584 C.2       1 <0>        -0.2200
     30 C20        -1.6986  -12.7383   -7.8673 C.2       1 <0>        -0.0008
     31 O2         -0.8526  -11.9765   -7.1553 O.3       1 <0>        -0.1586
     32 N9          2.7035   -8.8528   -3.6649 N.2       1 <0>        -0.6497
     33 H2          1.0042    1.8801    0.0026 H         1 <0>         0.0956
     34 H3         -0.5455    1.8639   -0.8728 H         1 <0>         0.1081
     35 H4         -0.5286    1.8543    0.9071 H         1 <0>         0.1096
     36 H5         -2.1079   -0.4896    0.0097 H         1 <0>         0.1724
     37 H6         -1.0205   -4.1586    0.5729 H         1 <0>         0.1501
     38 H7         -2.4670   -3.1310    0.4310 H         1 <0>         0.1691
     39 H8         -1.8481   -1.8998   -2.1951 H         1 <0>         0.1291
     40 H9         -2.6242   -3.1811   -3.1555 H         1 <0>         0.1360
     41 H10        -3.5795   -2.1676   -0.4391 H         1 <0>         0.0886
     42 H11        -4.3187   -1.7788   -2.0119 H         1 <0>         0.1177
     43 H12        -5.5141   -3.6384   -0.8369 H         1 <0>         0.1017
     44 H13        -4.8204   -4.1602   -2.3925 H         1 <0>         0.0883
     45 H14        -3.5854   -4.5827    0.3683 H         1 <0>         0.0913
     46 H15        -4.3286   -5.8360   -0.6554 H         1 <0>         0.1245
     47 H16        -1.5075   -5.8958    0.3849 H         1 <0>         0.1139
     48 H17        -2.1373   -7.1271   -0.7356 H         1 <0>         0.1511
     49 H18         1.3385   -5.9869   -0.0132 H         1 <0>         0.0978
     50 H19         1.4930   -5.2440   -1.6233 H         1 <0>         0.0864
     51 H20         0.4179   -4.5150   -0.4063 H         1 <0>         0.0777
     52 H21        -3.6948  -11.0861   -5.8865 H         1 <0>         0.1624
     53 H22        -3.8605  -12.9348   -7.8411 H         1 <0>         0.1610
     54 H23        -1.4175  -13.4360   -8.6423 H         1 <0>         0.2153
     55 H24         3.4273   -8.3658   -3.2408 H         1 <0>         0.3701
     56 H25         1.7747   -6.5078   -2.8266 H         1 <0>         0.4291
     57 H26        -0.7921   -3.9792   -1.8240 H         1 <0>         0.4185
@<TRIPOS>BOND
     1    1    2 1
     2    1   33 1
     3    1   34 1
     4    1   35 1
     5    2    6 1
     6    2    3 2
     7    3    4 1
     8    3   36 1
     9    4    5 2
    10    4    7 1
    11    5    6 1
    12    7    8 1
    13    7   37 1
    14    7   38 1
    15    8   13 1
    16    8    9 1
    17    8   57 1
    18    9   10 1
    19    9   39 1
    20    9   40 1
    21   10   11 1
    22   10   41 1
    23   10   42 1
    24   11   12 1
    25   11   43 1
    26   11   44 1
    27   12   13 1
    28   12   45 1
    29   12   46 1
    30   13   14 1
    31   13   15 1
    32   15   16 1
    33   15   47 1
    34   15   48 1
    35   16   17 1
    36   16   18 1
    37   17   49 1
    38   17   50 1
    39   17   51 1
    40   18   23 2
    41   18   19 1
    42   19   20 1
    43   19   56 1
    44   20   21 1
    45   20   32 2
    46   21   26 1
    47   21   22 1
    48   22   23 1
    49   22   24 2
    50   24   25 1
    51   25   26 2
    52   25   27 1
    53   27   31 1
    54   27   28 2
    55   28   29 1
    56   28   52 1
    57   29   30 2
    58   29   53 1
    59   30   31 1
    60   30   54 1
    61   32   55 1
