@<TRIPOS>MOLECULE
CHEMBL606297
   52    55     0     0     0
SMALL
USER_CHARGES

@<TRIPOS>ATOM
      1 C1          1.1309   -0.2546    1.6915 C.3       1 <0>         0.0863
      2 N1          0.5871   -1.4504    1.0429 N.am      1 <0>        -0.7402
      3 C2          1.0867   -1.8619   -0.1393 C.2       1 <0>         0.5093
      4 O1          1.9864   -1.2423   -0.6661 O.2       1 <0>        -0.5243
      5 C3          0.5273   -3.0919   -0.8066 C.3       1 <0>        -0.0990
      6 C4          1.2535   -3.3333   -2.1048 C.ar      1 <0>        -0.0854
      7 C5          0.7855   -2.7614   -3.2737 C.ar      1 <0>        -0.0838
      8 C6          1.4485   -2.9806   -4.4652 C.ar      1 <0>        -0.1434
      9 C7          2.5870   -3.7762   -4.4885 C.ar      1 <0>         0.1553
     10 C8          3.0546   -4.3487   -3.3124 C.ar      1 <0>        -0.1081
     11 C9          2.3895   -4.1215   -2.1236 C.ar      1 <0>        -0.0841
     12 N2          3.2602   -4.0004   -5.6927 N.pl3     1 <0>        -0.6357
     13 C10         4.6399   -4.1190   -5.7029 C.ar      1 <0>         0.4986
     14 C11         5.3232   -4.4645   -6.8814 C.ar      1 <0>        -0.0990
     15 C12         6.7235   -4.5692   -6.8299 C.ar      1 <0>         0.3150
     16 N3          7.3464   -4.3396   -5.6785 N.ar      1 <0>        -0.5424
     17 C13         6.6647   -4.0184   -4.5992 C.ar      1 <0>         0.3614
     18 N4          5.3492   -3.9031   -4.5999 N.ar      1 <0>        -0.5702
     19 N5          7.1239   -4.9126   -8.0964 N.pl3     1 <0>        -0.4715
     20 C14         6.0039   -5.0075   -8.8675 C.2       1 <0>         0.2688
     21 N6          4.9485   -4.7443   -8.1527 N.2       1 <0>        -0.4618
     22 C15         8.5025   -5.1363   -8.5389 C.3       1 <0>         0.3136
     23 C16         8.9064   -6.6105   -8.3157 C.3       1 <0>         0.0794
     24 H1          8.0234   -7.2492   -8.2929 H         1 <0>         0.0857
     25 C17         9.7872   -6.9479   -9.5395 C.3       1 <0>         0.0473
     26 H2          9.3397   -7.7534  -10.1217 H         1 <0>         0.0873
     27 C18         9.8112   -5.6376  -10.3573 C.3       1 <0>         0.0505
     28 H3         10.6941   -5.0497  -10.1063 H         1 <0>         0.1004
     29 O2          8.6115   -4.9357   -9.9650 O.3       1 <0>        -0.3470
     30 C19         9.7855   -5.9447  -11.8560 C.3       1 <0>         0.0821
     31 O3          9.9255   -4.7289  -12.5938 O.3       1 <0>        -0.5634
     32 O4         11.1066   -7.3059   -9.1233 O.3       1 <0>        -0.5387
     33 O5          9.6531   -6.7473   -7.1050 O.3       1 <0>        -0.5258
     34 H4          2.1926   -0.4004    1.8907 H         1 <0>         0.0596
     35 H5          0.9990    0.6061    1.0360 H         1 <0>         0.0592
     36 H6          0.6057   -0.0800    2.6306 H         1 <0>         0.0751
     37 H7         -0.1325   -1.9459    1.4642 H         1 <0>         0.4019
     38 H8          0.6592   -3.9527   -0.1510 H         1 <0>         0.1030
     39 H9         -0.5344   -2.9461   -1.0058 H         1 <0>         0.1026
     40 H10        -0.0997   -2.1430   -3.2549 H         1 <0>         0.1230
     41 H11         1.0821   -2.5342   -5.3778 H         1 <0>         0.1246
     42 H12         3.9395   -4.9678   -3.3271 H         1 <0>         0.1336
     43 H13         2.7547   -4.5633   -1.2082 H         1 <0>         0.1227
     44 H14         2.7610   -4.0731   -6.5212 H         1 <0>         0.4269
     45 H15         7.2017   -3.8387   -3.6796 H         1 <0>         0.2080
     46 H16         5.9936   -5.2634   -9.9167 H         1 <0>         0.2246
     47 H17         9.1832   -4.4701   -8.0089 H         1 <0>         0.1243
     48 H18        10.6075   -6.6165  -12.1034 H         1 <0>         0.0672
     49 H19         8.8385   -6.4190  -12.1135 H         1 <0>         0.0611
     50 H20         9.9177   -4.8480  -13.5534 H         1 <0>         0.3869
     51 H21        11.7023   -7.5276   -9.8521 H         1 <0>         0.3875
     52 H22         9.9326   -7.6534   -6.9154 H         1 <0>         0.3910
@<TRIPOS>BOND
     1    1    2 1
     2    1   34 1
     3    1   35 1
     4    1   36 1
     5    2    3 am
     6    2   37 1
     7    3    4 2
     8    3    5 1
     9    5    6 1
    10    5   38 1
    11    5   39 1
    12    6   11 ar
    13    6    7 ar
    14    7    8 ar
    15    7   40 1
    16    8    9 ar
    17    8   41 1
    18    9   10 ar
    19    9   12 1
    20   10   11 ar
    21   10   42 1
    22   11   43 1
    23   12   13 1
    24   12   44 1
    25   13   18 ar
    26   13   14 ar
    27   14   21 1
    28   14   15 ar
    29   15   16 ar
    30   15   19 1
    31   16   17 ar
    32   17   18 ar
    33   17   45 1
    34   19   20 1
    35   19   22 1
    36   20   21 2
    37   20   46 1
    38   22   29 1
    39   22   23 1
    40   22   47 1
    41   23   24 1
    42   23   25 1
    43   23   33 1
    44   25   26 1
    45   25   27 1
    46   25   32 1
    47   27   28 1
    48   27   29 1
    49   27   30 1
    50   30   31 1
    51   30   48 1
    52   30   49 1
    53   31   50 1
    54   32   51 1
    55   33   52 1
