@<TRIPOS>MOLECULE
CHEMBL368619
   51    55     0     0     0
SMALL
USER_CHARGES

@<TRIPOS>ATOM
      1 C1         -0.0184    1.5028    0.0103 C.3       1 <0>        -0.1059
      2 C2          0.0021   -0.0041    0.0020 C.2       1 <0>         0.1178
      3 C3          0.0080   -0.8237   -1.1409 C.2       1 <0>        -0.3407
      4 C4          0.0273   -2.1079   -0.7353 C.2       1 <0>         0.1453
      5 O1          0.0335   -2.1190    0.6064 O.3       1 <0>        -0.0587
      6 N1          0.0230   -0.7748    1.0524 N.2       1 <0>        -0.2827
      7 C5          0.0393   -3.3197   -1.6311 C.3       1 <0>        -0.1157
      8 C6         -0.0053   -0.3478   -2.5707 C.3       1 <0>         0.0795
      9 N2          1.3752   -0.1740   -3.0418 N.4       1 <0>        -0.3856
     10 C7          2.0222    0.8958   -2.2718 C.3       1 <0>        -0.0300
     11 C8          3.4946    1.0006   -2.6826 C.3       1 <0>         0.1060
     12 N3          3.5602    1.1778   -4.1415 N.pl3     1 <0>        -0.6002
     13 C9          2.8032    0.2427   -4.9881 C.3       1 <0>         0.0901
     14 C10         1.3634    0.1736   -4.4684 C.3       1 <0>        -0.0202
     15 C11         4.3046    2.1851   -4.6959 C.2       1 <0>         0.6633
     16 N4          4.3369    2.3222   -6.0627 N.pl3     1 <0>        -0.7075
     17 C12         4.6594    3.5665   -6.6039 C.2       1 <0>         0.6314
     18 N5          5.5067    4.3210   -5.8091 N.pl3     1 <0>        -0.3829
     19 C13         5.6449    4.0327   -4.4669 C.2       1 <0>         0.4990
     20 N6          4.9720    3.0073   -3.9034 N.2       1 <0>        -0.5246
     21 N7          6.4861    4.9002   -3.9656 N.2       1 <0>        -0.4758
     22 C14         6.9041    5.7359   -4.9338 C.2       1 <0>         0.3324
     23 N8          6.3241    5.4066   -6.0759 N.2       1 <0>        -0.2428
     24 C15         7.8603    6.8473   -4.7497 C.2       1 <0>         0.0312
     25 C16         8.4673    7.1928   -3.5832 C.2       1 <0>        -0.1239
     26 C17         9.2903    8.3007   -3.8665 C.2       1 <0>        -0.2197
     27 C18         9.1467    8.5741   -5.1782 C.2       1 <0>        -0.0007
     28 O2          8.2866    7.6905   -5.7098 O.3       1 <0>        -0.1587
     29 N9          4.2057    3.9810   -7.7525 N.2       1 <0>        -0.6520
     30 H1          1.0042    1.8801    0.0026 H         1 <0>         0.0979
     31 H2         -0.5455    1.8639   -0.8728 H         1 <0>         0.0908
     32 H3         -0.5286    1.8543    0.9071 H         1 <0>         0.1008
     33 H4          1.0697   -3.5980   -1.8521 H         1 <0>         0.1087
     34 H5         -0.4610   -4.1477   -1.1290 H         1 <0>         0.1087
     35 H6         -0.4822   -3.0898   -2.5603 H         1 <0>         0.1025
     36 H7         -0.5120   -1.0846   -3.1941 H         1 <0>         0.1437
     37 H8         -0.5327    0.6041   -2.6319 H         1 <0>         0.1427
     38 H9          1.5206    1.8425   -2.4724 H         1 <0>         0.1414
     39 H10         1.9571    0.6681   -1.2078 H         1 <0>         0.1463
     40 H11         3.9526    1.8576   -2.1886 H         1 <0>         0.1546
     41 H12         4.0195    0.0879   -2.4005 H         1 <0>         0.1047
     42 H13         2.8041    0.5985   -6.0184 H         1 <0>         0.1237
     43 H14         3.2583   -0.7466   -4.9388 H         1 <0>         0.1129
     44 H15         0.8129   -0.5862   -5.0231 H         1 <0>         0.1537
     45 H16         0.8817    1.1421   -4.6026 H         1 <0>         0.1405
     46 H17         8.3422    6.7113   -2.6245 H         1 <0>         0.1630
     47 H18         9.9174    8.8309   -3.1650 H         1 <0>         0.1612
     48 H19         9.6443    9.3689   -5.7139 H         1 <0>         0.2154
     49 H20         3.6146    3.4151   -8.2733 H         1 <0>         0.3682
     50 H21         4.1396    1.5681   -6.6400 H         1 <0>         0.4280
     51 H22         1.8849   -1.0349   -2.9109 H         1 <0>         0.4230
@<TRIPOS>BOND
     1    1    2 1
     2    1   30 1
     3    1   31 1
     4    1   32 1
     5    2    6 2
     6    2    3 1
     7    3    4 2
     8    3    8 1
     9    4    5 1
    10    4    7 1
    11    5    6 1
    12    7   33 1
    13    7   34 1
    14    7   35 1
    15    8    9 1
    16    8   36 1
    17    8   37 1
    18    9   14 1
    19    9   10 1
    20    9   51 1
    21   10   11 1
    22   10   38 1
    23   10   39 1
    24   11   12 1
    25   11   40 1
    26   11   41 1
    27   12   13 1
    28   12   15 1
    29   13   14 1
    30   13   42 1
    31   13   43 1
    32   14   44 1
    33   14   45 1
    34   15   20 2
    35   15   16 1
    36   16   17 1
    37   16   50 1
    38   17   18 1
    39   17   29 2
    40   18   23 1
    41   18   19 1
    42   19   20 1
    43   19   21 2
    44   21   22 1
    45   22   23 2
    46   22   24 1
    47   24   28 1
    48   24   25 2
    49   25   26 1
    50   25   46 1
    51   26   27 2
    52   26   47 1
    53   27   28 1
    54   27   48 1
    55   29   49 1
