@<TRIPOS>MOLECULE
CHEMBL426952
   56    61     0     0     0
SMALL
USER_CHARGES

@<TRIPOS>ATOM
      1 C1         -0.0166    1.3755    0.0096 C.ar      1 <0>        -0.1111
      2 C2          1.1704    2.0862    0.0021 C.ar      1 <0>        -0.0830
      3 C3          2.3822    1.4194   -0.0131 C.ar      1 <0>        -0.1675
      4 C4          2.4135    0.0396   -0.0213 C.ar      1 <0>        -0.0499
      5 C5          1.2207   -0.6820   -0.0138 C.ar      1 <0>        -0.0357
      6 C6          0.0021   -0.0041    0.0020 C.ar      1 <0>        -0.0580
      7 C7          1.2476   -2.1638   -0.0230 C.2       1 <0>         0.2288
      8 C8          0.0616   -2.8758   -0.0213 C.2       1 <0>        -0.2015
      9 C9          0.1240   -4.2809   -0.0307 C.2       1 <0>         0.3485
     10 N1         -0.7923   -5.2365   -0.0319 N.2       1 <0>        -0.5140
     11 C10        -0.1932   -6.4315   -0.0428 C.2       1 <0>         0.3633
     12 N2          1.1172   -6.2646   -0.0487 N.2       1 <0>        -0.3132
     13 N3          1.3558   -4.8843   -0.0411 N.pl3     1 <0>        -0.3619
     14 C11         2.4858   -4.1241   -0.0422 C.2       1 <0>         0.6611
     15 N4          2.4224   -2.8123   -0.0386 N.2       1 <0>        -0.5608
     16 N5          3.7150   -4.7410   -0.0528 N.pl3     1 <0>        -0.8040
     17 C12        -0.8885   -7.7358   -0.0471 C.2       1 <0>         0.0239
     18 C13        -2.2350   -7.9219   -0.0465 C.2       1 <0>        -0.1188
     19 C14        -2.4523   -9.3140   -0.0515 C.2       1 <0>        -0.2196
     20 C15        -1.2401   -9.9027   -0.0549 C.2       1 <0>         0.0008
     21 O1         -0.2978   -8.9463   -0.0580 O.3       1 <0>        -0.1604
     22 C16         3.6706    2.2009   -0.0212 C.3       1 <0>         0.0457
     23 N6          4.1025    2.4474    1.3611 N.4       1 <0>        -0.3834
     24 C17         3.1195    3.3064    2.0333 C.3       1 <0>        -0.0272
     25 C18         3.5086    3.4705    3.5062 C.3       1 <0>         0.1114
     26 N7          4.8924    3.9657    3.5706 N.pl3     1 <0>        -0.5901
     27 C19         5.9192    3.2571    2.7911 C.3       1 <0>         0.1067
     28 C20         5.4163    3.1032    1.3519 C.3       1 <0>        -0.0208
     29 C21         5.2193    5.0689    4.3435 C.2       1 <0>         0.2911
     30 N8          4.4283    5.8036    5.0961 N.2       1 <0>        -0.5727
     31 C22         4.8989    6.8327    5.7786 C.2       1 <0>         0.0702
     32 C23         6.2237    7.0920    5.6665 C.2       1 <0>        -0.2399
     33 S1          6.7256    5.7897    4.5532 S.3       1 <0>         0.0974
     34 H1         -0.9597    1.9016    0.0260 H         1 <0>         0.1446
     35 H2          1.1508    3.1661    0.0077 H         1 <0>         0.1355
     36 H3          3.3602   -0.4800   -0.0338 H         1 <0>         0.1453
     37 H4         -0.9251   -0.5578    0.0079 H         1 <0>         0.1453
     38 H5         -0.8898   -2.3648   -0.0125 H         1 <0>         0.1680
     39 H6          3.7717   -5.7093   -0.0593 H         1 <0>         0.4282
     40 H7          4.5253   -4.2078   -0.0537 H         1 <0>         0.4289
     41 H8         -2.9920   -7.1517   -0.0430 H         1 <0>         0.1638
     42 H9         -3.4093   -9.8146   -0.0522 H         1 <0>         0.1623
     43 H10        -1.0570  -10.9671   -0.0587 H         1 <0>         0.2162
     44 H11         4.4379    1.6312   -0.5455 H         1 <0>         0.1412
     45 H12         3.5148    3.1531   -0.5284 H         1 <0>         0.1383
     46 H13         3.1011    4.2839    1.5512 H         1 <0>         0.1350
     47 H14         2.1321    2.8496    1.9670 H         1 <0>         0.1455
     48 H15         2.8406    4.1871    3.9840 H         1 <0>         0.1360
     49 H16         3.4403    2.5076    4.0125 H         1 <0>         0.0928
     50 H17         6.8448    3.8327    2.7960 H         1 <0>         0.1249
     51 H18         6.0943    2.2727    3.2252 H         1 <0>         0.1020
     52 H19         6.1213    2.4966    0.7835 H         1 <0>         0.1493
     53 H20         5.3284    4.0868    0.8905 H         1 <0>         0.1371
     54 H21         4.2557    7.4402    6.3979 H         1 <0>         0.1793
     55 H22         6.8144    7.8702    6.1269 H         1 <0>         0.2013
     56 H23         4.1699    1.5689    1.8528 H         1 <0>         0.4239
@<TRIPOS>BOND
     1    1    6 ar
     2    1    2 ar
     3    1   34 1
     4    2    3 ar
     5    2   35 1
     6    3    4 ar
     7    3   22 1
     8    4    5 ar
     9    4   36 1
    10    5    6 ar
    11    5    7 1
    12    6   37 1
    13    7   15 1
    14    7    8 2
    15    8    9 1
    16    8   38 1
    17    9   13 1
    18    9   10 2
    19   10   11 1
    20   11   12 2
    21   11   17 1
    22   12   13 1
    23   13   14 1
    24   14   15 2
    25   14   16 1
    26   16   39 1
    27   16   40 1
    28   17   21 1
    29   17   18 2
    30   18   19 1
    31   18   41 1
    32   19   20 2
    33   19   42 1
    34   20   21 1
    35   20   43 1
    36   22   23 1
    37   22   44 1
    38   22   45 1
    39   23   28 1
    40   23   24 1
    41   23   56 1
    42   24   25 1
    43   24   46 1
    44   24   47 1
    45   25   26 1
    46   25   48 1
    47   25   49 1
    48   26   27 1
    49   26   29 1
    50   27   28 1
    51   27   50 1
    52   27   51 1
    53   28   52 1
    54   28   53 1
    55   29   33 1
    56   29   30 2
    57   30   31 1
    58   31   32 2
    59   31   54 1
    60   32   33 1
    61   32   55 1
