@<TRIPOS>MOLECULE
CHEMBL481146
   63    68     0     0     0
SMALL
USER_CHARGES

@<TRIPOS>ATOM
      1 C1         -0.0187    1.5258    0.0104 C.3       1 <0>        -0.1621
      2 C2          0.0021   -0.0041    0.0020 C.3       1 <0>         0.1373
      3 C3          0.7309   -0.5033    1.2229 C.ar      1 <0>         0.1638
      4 C4          0.0931   -1.4053    2.0719 C.ar      1 <0>        -0.1500
      5 C5          0.7383   -1.8685    3.1830 C.ar      1 <0>        -0.0590
      6 C6          2.0453   -1.4088    3.4320 C.ar      1 <0>        -0.1012
      7 C7          2.7711   -1.8410    4.5538 C.ar      1 <0>        -0.0858
      8 C8          4.0330   -1.3735    4.7597 C.ar      1 <0>        -0.0821
      9 C9          4.6149   -0.4711    3.8714 C.ar      1 <0>        -0.0934
     10 C10         3.9402   -0.0311    2.7747 C.ar      1 <0>        -0.0885
     11 C11         2.6349   -0.4913    2.5276 C.ar      1 <0>         0.1323
     12 N1          1.9502   -0.0814    1.4551 N.ar      1 <0>        -0.4695
     13 C12         4.8107   -1.8377    5.9642 C.3       1 <0>        -0.0961
     14 C13         5.6063   -3.0941    5.6044 C.3       1 <0>         0.1437
     15 N2          6.3623   -3.5454    6.7754 N.pl3     1 <0>        -0.3551
     16 C14         7.6258   -3.1583    7.1079 C.2       1 <0>         0.3707
     17 C15         7.9504   -3.8322    8.2951 C.2       1 <0>        -0.2670
     18 C16         6.8406   -4.6223    8.6445 C.2       1 <0>         0.1316
     19 N3          5.9085   -4.4440    7.7489 N.2       1 <0>        -0.2632
     20 C17         9.2704   -3.5956    8.8806 C.2       1 <0>         0.4064
     21 N4          9.8973   -4.0389    9.9505 N.2       1 <0>        -0.5160
     22 C18        11.1161   -3.4884   10.0181 C.2       1 <0>         0.3508
     23 N5         11.2867   -2.6817    8.9877 N.2       1 <0>        -0.2995
     24 N6         10.1092   -2.7280    8.2306 N.pl3     1 <0>        -0.3763
     25 C19         9.7016   -2.1194    7.0792 C.2       1 <0>         0.6922
     26 N7          8.5203   -2.3292    6.5523 N.2       1 <0>        -0.5614
     27 N8         10.5635   -1.2534    6.4476 N.pl3     1 <0>        -0.8020
     28 C20        12.1128   -3.7440   11.0790 C.2       1 <0>         0.0422
     29 C21        13.3505   -3.1876   11.1616 C.2       1 <0>        -0.1370
     30 C22        13.9532   -3.7092   12.3235 C.2       1 <0>        -0.2200
     31 C23        13.0629   -4.5494   12.8868 C.2       1 <0>        -0.0040
     32 O1         11.9505   -4.5641   12.1351 O.3       1 <0>        -0.1521
     33 O2         -1.3386   -0.4987    0.0122 O.3       1 <0>        -0.3708
     34 C24        -1.8963   -0.6929   -1.2891 C.3       1 <0>         0.0636
     35 C25        -3.3260   -1.2214   -1.1575 C.3       1 <0>         0.0621
     36 O3         -4.1461   -0.2279   -0.5390 O.3       1 <0>        -0.3834
     37 C26        -5.5087   -0.6231   -0.3681 C.3       1 <0>         0.0304
     38 H1          1.0039    1.9031    0.0027 H         1 <0>         0.0770
     39 H2         -0.5459    1.8868   -0.8726 H         1 <0>         0.0632
     40 H3         -0.5289    1.8773    0.9072 H         1 <0>         0.0636
     41 H4          0.5123   -0.3556   -0.8948 H         1 <0>         0.0827
     42 H5         -0.9106   -1.7377    1.8518 H         1 <0>         0.1474
     43 H6          0.2590   -2.5677    3.8522 H         1 <0>         0.1408
     44 H7          2.3306   -2.5399    5.2494 H         1 <0>         0.1325
     45 H8          5.6175   -0.1148    4.0567 H         1 <0>         0.1318
     46 H9          4.4056    0.6690    2.0967 H         1 <0>         0.1372
     47 H10         5.4965   -1.0512    6.2791 H         1 <0>         0.0828
     48 H11         4.1206   -2.0649    6.7768 H         1 <0>         0.0858
     49 H12         4.9205   -3.8807    5.2895 H         1 <0>         0.1037
     50 H13         6.2963   -2.8669    4.7919 H         1 <0>         0.1025
     51 H14         6.7701   -5.2647    9.5098 H         1 <0>         0.2025
     52 H15        11.4425   -1.0851    6.8217 H         1 <0>         0.4265
     53 H16        10.2924   -0.8110    5.6281 H         1 <0>         0.4305
     54 H17        13.7874   -2.4825   10.4701 H         1 <0>         0.1599
     55 H18        14.9418   -3.4794   12.6925 H         1 <0>         0.1594
     56 H19        13.2171   -5.1141   13.7944 H         1 <0>         0.2142
     57 H20        -1.9077    0.2563   -1.8248 H         1 <0>         0.0625
     58 H21        -1.2917   -1.4136   -1.8397 H         1 <0>         0.0676
     59 H22        -3.7202   -1.4535   -2.1469 H         1 <0>         0.0661
     60 H23        -3.3250   -2.1238   -0.5460 H         1 <0>         0.0586
     61 H24        -5.5530   -1.5130    0.2597 H         1 <0>         0.0420
     62 H25        -6.0645    0.1850    0.1074 H         1 <0>         0.0870
     63 H26        -5.9481   -0.8427   -1.3412 H         1 <0>         0.0409
@<TRIPOS>BOND
     1    1    2 1
     2    1   38 1
     3    1   39 1
     4    1   40 1
     5    2    3 1
     6    2   33 1
     7    2   41 1
     8    3   12 ar
     9    3    4 ar
    10    4    5 ar
    11    4   42 1
    12    5    6 ar
    13    5   43 1
    14    6   11 ar
    15    6    7 ar
    16    7    8 ar
    17    7   44 1
    18    8    9 ar
    19    8   13 1
    20    9   10 ar
    21    9   45 1
    22   10   11 ar
    23   10   46 1
    24   11   12 ar
    25   13   14 1
    26   13   47 1
    27   13   48 1
    28   14   15 1
    29   14   49 1
    30   14   50 1
    31   15   19 1
    32   15   16 1
    33   16   26 1
    34   16   17 2
    35   17   18 1
    36   17   20 1
    37   18   19 2
    38   18   51 1
    39   20   24 1
    40   20   21 2
    41   21   22 1
    42   22   23 2
    43   22   28 1
    44   23   24 1
    45   24   25 1
    46   25   26 2
    47   25   27 1
    48   27   52 1
    49   27   53 1
    50   28   32 1
    51   28   29 2
    52   29   30 1
    53   29   54 1
    54   30   31 2
    55   30   55 1
    56   31   32 1
    57   31   56 1
    58   33   34 1
    59   34   35 1
    60   34   57 1
    61   34   58 1
    62   35   36 1
    63   35   59 1
    64   35   60 1
    65   36   37 1
    66   37   61 1
    67   37   62 1
    68   37   63 1
