@<TRIPOS>MOLECULE
CHEMBL608298
   56    59     0     0     0
SMALL
USER_CHARGES

@<TRIPOS>ATOM
      1 C1         -0.0164    1.3590    0.0095 C.2       1 <0>         0.2667
      2 N1          1.2006    1.8206    0.0004 N.2       1 <0>        -0.4578
      3 C2          2.0754    0.7871   -0.0135 C.ar      1 <0>        -0.1042
      4 C3          3.4784    0.6816   -0.0279 C.ar      1 <0>         0.5144
      5 N2          4.0240   -0.5276   -0.0400 N.ar      1 <0>        -0.5724
      6 C4          3.2683   -1.6225   -0.0386 C.ar      1 <0>         0.5020
      7 N3          1.9438   -1.5670   -0.0257 N.ar      1 <0>        -0.5298
      8 C5          1.3171   -0.3971   -0.0127 C.ar      1 <0>         0.3174
      9 N4          0.0021   -0.0041    0.0020 N.pl3     1 <0>        -0.4696
     10 C6         -1.1668   -0.8871    0.0089 C.3       1 <0>         0.3129
     11 C7         -1.5540   -1.2556    1.4583 C.3       1 <0>         0.0789
     12 H1         -1.1953   -0.4970    2.1540 H         1 <0>         0.0861
     13 C8         -3.0987   -1.2847    1.4384 C.3       1 <0>         0.0475
     14 H2         -3.5036   -0.5406    2.1242 H         1 <0>         0.0876
     15 C9         -3.4621   -0.9305   -0.0207 C.3       1 <0>         0.0503
     16 H3         -3.6135   -1.8381   -0.6051 H         1 <0>         0.1004
     17 O1         -2.3213   -0.1972   -0.5174 O.3       1 <0>        -0.3464
     18 C10        -4.7178   -0.0573   -0.0599 C.3       1 <0>         0.0823
     19 O2         -5.1032    0.1621   -1.4183 O.3       1 <0>        -0.5634
     20 O3         -3.5792   -2.5878    1.7747 O.3       1 <0>        -0.5386
     21 O4         -1.0307   -2.5391    1.8055 O.3       1 <0>        -0.5255
     22 C11         3.9070   -2.9041   -0.0520 C.1       1 <0>        -0.1305
     23 C12         4.4307   -3.9548   -0.0630 C.1       1 <0>        -0.0822
     24 C13         5.0872   -5.2722   -0.0768 C.3       1 <0>        -0.0133
     25 C14         4.0237   -6.3721   -0.0724 C.3       1 <0>        -0.1124
     26 C15         4.7062   -7.7414   -0.0867 C.3       1 <0>        -0.0871
     27 C16         5.4664   -7.9187   -1.4026 C.3       1 <0>        -0.1188
     28 C17         6.1488   -9.2880   -1.4169 C.3       1 <0>        -0.1207
     29 C18         5.0915  -10.3861   -1.2869 C.3       1 <0>        -0.1212
     30 C19         4.3312  -10.2089    0.0290 C.3       1 <0>        -0.1204
     31 C20         3.6488   -8.8396    0.0433 C.3       1 <0>        -0.1150
     32 N5          4.2724    1.8152   -0.0299 N.pl3     1 <0>        -0.8146
     33 H4         -0.9093    1.9664    0.0254 H         1 <0>         0.2254
     34 H5         -0.9651   -1.7870   -0.5722 H         1 <0>         0.1242
     35 H6         -5.5265   -0.5599    0.4706 H         1 <0>         0.0672
     36 H7         -4.5097    0.9001    0.4179 H         1 <0>         0.0612
     37 H8         -5.8941    0.7093   -1.5193 H         1 <0>         0.3868
     38 H9         -4.5433   -2.6629    1.7773 H         1 <0>         0.3874
     39 H10        -1.2440   -2.8205    2.7057 H         1 <0>         0.3909
     40 H11         5.7004   -5.3632   -0.9733 H         1 <0>         0.0973
     41 H12         5.7179   -5.3731    0.8065 H         1 <0>         0.0954
     42 H13         3.4106   -6.2811    0.8241 H         1 <0>         0.0698
     43 H14         3.3931   -6.2713   -0.9557 H         1 <0>         0.0697
     44 H15         5.4040   -7.8083    0.7479 H         1 <0>         0.0733
     45 H16         4.7685   -7.8518   -2.2373 H         1 <0>         0.0630
     46 H17         6.2197   -7.1363   -1.4953 H         1 <0>         0.0648
     47 H18         6.6904   -9.4142   -2.3544 H         1 <0>         0.0605
     48 H19         6.8467   -9.3549   -0.5823 H         1 <0>         0.0613
     49 H20         4.3936  -10.3192   -2.1215 H         1 <0>         0.0607
     50 H21         5.5776  -11.3617   -1.2971 H         1 <0>         0.0594
     51 H22         3.5780  -10.9913    0.1216 H         1 <0>         0.0605
     52 H23         5.0291  -10.2758    0.8636 H         1 <0>         0.0611
     53 H24         3.1072   -8.7134    0.9808 H         1 <0>         0.0621
     54 H25         2.9509   -8.7727   -0.7913 H         1 <0>         0.0624
     55 H26         3.8626    2.6943   -0.0213 H         1 <0>         0.4208
     56 H27         5.2386    1.7306   -0.0398 H         1 <0>         0.4121
@<TRIPOS>BOND
     1    1    9 1
     2    1    2 2
     3    1   33 1
     4    2    3 1
     5    3    8 ar
     6    3    4 ar
     7    4    5 ar
     8    4   32 1
     9    5    6 ar
    10    6    7 ar
    11    6   22 1
    12    7    8 ar
    13    8    9 1
    14    9   10 1
    15   10   17 1
    16   10   11 1
    17   10   34 1
    18   11   12 1
    19   11   13 1
    20   11   21 1
    21   13   14 1
    22   13   15 1
    23   13   20 1
    24   15   16 1
    25   15   17 1
    26   15   18 1
    27   18   19 1
    28   18   35 1
    29   18   36 1
    30   19   37 1
    31   20   38 1
    32   21   39 1
    33   22   23 3
    34   23   24 1
    35   24   25 1
    36   24   40 1
    37   24   41 1
    38   25   26 1
    39   25   42 1
    40   25   43 1
    41   26   31 1
    42   26   27 1
    43   26   44 1
    44   27   28 1
    45   27   45 1
    46   27   46 1
    47   28   29 1
    48   28   47 1
    49   28   48 1
    50   29   30 1
    51   29   49 1
    52   29   50 1
    53   30   31 1
    54   30   51 1
    55   30   52 1
    56   31   53 1
    57   31   54 1
    58   32   55 1
    59   32   56 1
