@<TRIPOS>MOLECULE
CHEMBL410678
   36    39     0     0     0
SMALL
USER_CHARGES

@<TRIPOS>ATOM
      1 C1         -0.0167    1.3780    0.0096 C.ar      1 <0>        -0.1326
      2 C2          1.1706    2.0866    0.0021 C.ar      1 <0>        -0.0802
      3 C3          2.3773    1.4137   -0.0131 C.ar      1 <0>        -0.1576
      4 C4          2.3974    0.0291   -0.0207 C.ar      1 <0>         0.1174
      5 C5          1.2080   -0.6793   -0.0132 C.ar      1 <0>        -0.1533
      6 C6          0.0021   -0.0041    0.0020 C.ar      1 <0>        -0.0618
      7 C7          1.2281   -2.1862   -0.0220 C.3       1 <0>         0.1553
      8 N1          1.3684   -2.6807    1.3499 N.pl3     1 <0>        -0.4612
      9 C8          2.5565   -3.0174    1.9474 C.2       1 <0>         0.0467
     10 C9          2.3320   -3.4321    3.2055 C.2       1 <0>        -0.1540
     11 C10         0.8903   -3.3534    3.4262 C.ar      1 <0>        -0.2405
     12 C11         0.3343   -2.8692    2.2260 C.ar      1 <0>         0.3756
     13 N2         -0.9835   -2.6966    2.1573 N.ar      1 <0>        -0.5841
     14 C12        -1.7572   -2.9709    3.1951 C.ar      1 <0>         0.5962
     15 N3         -1.2770   -3.4251    4.3436 N.ar      1 <0>        -0.5643
     16 C13         0.0307   -3.6370    4.5040 C.ar      1 <0>         0.3426
     17 C14         0.5627   -4.1407    5.7817 C.2       1 <0>         0.0121
     18 C15         0.0752   -3.8521    7.0207 C.2       1 <0>        -0.1422
     19 C16         0.8814   -4.5426    7.9440 C.2       1 <0>        -0.2195
     20 C17         1.8123   -5.2124    7.2337 C.2       1 <0>        -0.0173
     21 O1          1.6133   -4.9722    5.9287 O.3       1 <0>        -0.1598
     22 N4         -3.1236   -2.7749    3.0764 N.pl3     1 <0>        -0.8207
     23 F1          3.5766   -0.6299   -0.0360 F         1 <0>        -0.1358
     24 H1         -0.9594    1.9048    0.0260 H         1 <0>         0.1324
     25 H2          1.1547    3.1665    0.0077 H         1 <0>         0.1353
     26 H3          3.3046    1.9675   -0.0193 H         1 <0>         0.1382
     27 H4         -0.9259   -0.5565    0.0083 H         1 <0>         0.1377
     28 H5          0.2975   -2.5595   -0.4494 H         1 <0>         0.1061
     29 H6          2.0689   -2.5348   -0.6216 H         1 <0>         0.1048
     30 H7          3.5268   -2.9584    1.4769 H         1 <0>         0.1793
     31 H8          3.0749   -3.7611    3.9170 H         1 <0>         0.1542
     32 H9         -0.7669   -3.2158    7.2498 H         1 <0>         0.1554
     33 H10         0.7753   -4.5372    9.0188 H         1 <0>         0.1549
     34 H11         2.5867   -5.8417    7.6468 H         1 <0>         0.2101
     35 H12        -3.4954   -2.4427    2.2443 H         1 <0>         0.4143
     36 H13        -3.7084   -2.9698    3.8253 H         1 <0>         0.4164
@<TRIPOS>BOND
     1    1    6 ar
     2    1    2 ar
     3    1   24 1
     4    2    3 ar
     5    2   25 1
     6    3    4 ar
     7    3   26 1
     8    4    5 ar
     9    4   23 1
    10    5    6 ar
    11    5    7 1
    12    6   27 1
    13    7    8 1
    14    7   28 1
    15    7   29 1
    16    8   12 1
    17    8    9 1
    18    9   10 2
    19    9   30 1
    20   10   11 1
    21   10   31 1
    22   11   16 ar
    23   11   12 ar
    24   12   13 ar
    25   13   14 ar
    26   14   15 ar
    27   14   22 1
    28   15   16 ar
    29   16   17 1
    30   17   21 1
    31   17   18 2
    32   18   19 1
    33   18   32 1
    34   19   20 2
    35   19   33 1
    36   20   21 1
    37   20   34 1
    38   22   35 1
    39   22   36 1
