@<TRIPOS>MOLECULE
CHEMBL222767
   64    70     0     0     0
SMALL
USER_CHARGES

@<TRIPOS>ATOM
      1 C1         -0.0164    1.3592    0.0095 C.ar      1 <0>        -0.1214
      2 C2          1.1683    2.0908    0.0021 C.ar      1 <0>        -0.0665
      3 C3          2.3798    1.4666   -0.0133 C.ar      1 <0>        -0.1049
      4 C4          2.4365    0.0660   -0.0213 C.ar      1 <0>         0.1812
      5 C5          1.2300   -0.6768   -0.0133 C.ar      1 <0>        -0.1637
      6 C6          0.0021   -0.0041    0.0020 C.ar      1 <0>        -0.0667
      7 C7          1.3141   -2.0881   -0.0212 C.ar      1 <0>         0.4024
      8 N1          2.5162   -2.6435   -0.0357 N.ar      1 <0>        -0.5900
      9 C8          3.6178   -1.9094   -0.0427 C.ar      1 <0>         0.3376
     10 N2          3.6011   -0.5978   -0.0360 N.ar      1 <0>        -0.5174
     11 O1          0.1968   -2.8506   -0.0138 O.3       1 <0>        -0.2905
     12 C9          0.3785   -4.2680   -0.0227 C.3       1 <0>         0.0745
     13 C10        -0.9874   -4.9573   -0.0123 C.3       1 <0>        -0.1089
     14 H1         -1.5693   -4.5994    0.8370 H         1 <0>         0.1105
     15 C11        -1.7310   -4.6382   -1.3124 C.3       1 <0>        -0.1389
     16 C12        -3.0610   -5.3972   -1.3291 C.3       1 <0>        -0.1365
     17 C13        -2.7878   -6.8951   -1.1699 C.3       1 <0>         0.0139
     18 H2         -3.7305   -7.4419   -1.1912 H         1 <0>         0.1486
     19 C14        -1.8935   -7.3702   -2.3206 C.3       1 <0>         0.1055
     20 N3         -1.5324   -8.7758   -2.0800 N.pl3     1 <0>        -0.5995
     21 C15        -0.9920   -9.1365   -0.7602 C.3       1 <0>         0.0873
     22 C16        -1.9267   -8.5765    0.3171 C.3       1 <0>        -0.0180
     23 N4         -2.1099   -7.1347    0.1104 N.4       1 <0>        -0.3776
     24 C17        -0.7948   -6.4712    0.1019 C.3       1 <0>        -0.0147
     25 C18        -1.6952   -9.7219   -3.0570 C.2       1 <0>         0.6633
     26 N5         -1.3518  -11.0259   -2.7930 N.pl3     1 <0>        -0.7075
     27 C19        -1.9399  -12.0399   -3.5487 C.2       1 <0>         0.6313
     28 N6         -2.2755  -11.6563   -4.8368 N.pl3     1 <0>        -0.3827
     29 C20        -2.3991  -10.3199   -5.1568 C.2       1 <0>         0.4989
     30 N7         -2.1845   -9.3609   -4.2316 N.2       1 <0>        -0.5245
     31 N8         -2.7317  -10.2499   -6.4202 N.2       1 <0>        -0.4758
     32 C21        -2.8217  -11.4905   -6.9332 C.2       1 <0>         0.3322
     33 N9         -2.5460  -12.3750   -5.9893 N.2       1 <0>        -0.2426
     34 C22        -3.1737  -11.8139   -8.3315 C.2       1 <0>         0.0314
     35 C23        -3.4538  -10.9148   -9.3122 C.2       1 <0>        -0.1240
     36 C24        -3.7329  -11.6579  -10.4763 C.2       1 <0>        -0.2197
     37 C25        -3.6107  -12.9602  -10.1522 C.2       1 <0>        -0.0006
     38 O2         -3.2671  -13.0506   -8.8573 O.3       1 <0>        -0.1586
     39 N10        -2.1533  -13.2386   -3.0858 N.2       1 <0>        -0.6515
     40 H3         -0.9630    1.8788    0.0259 H         1 <0>         0.1370
     41 H4          1.1266    3.1700    0.0083 H         1 <0>         0.1411
     42 H5          3.2903    2.0474   -0.0196 H         1 <0>         0.1477
     43 H6         -0.9233   -0.5608    0.0082 H         1 <0>         0.1370
     44 H7          4.5731   -2.4130   -0.0546 H         1 <0>         0.2027
     45 H8          0.9253   -4.5585   -0.9197 H         1 <0>         0.0833
     46 H9          0.9433   -4.5674    0.8602 H         1 <0>         0.0835
     47 H10        -1.9223   -3.5666   -1.3691 H         1 <0>         0.1073
     48 H11        -1.1248   -4.9467   -2.1641 H         1 <0>         0.0874
     49 H12        -3.6877   -5.0519   -0.5067 H         1 <0>         0.0988
     50 H13        -3.5704   -5.2185   -2.2760 H         1 <0>         0.1233
     51 H14        -2.4343   -7.2871   -3.2633 H         1 <0>         0.1540
     52 H15        -0.9902   -6.7612   -2.3581 H         1 <0>         0.1058
     53 H16        -0.9382  -10.2215   -0.6705 H         1 <0>         0.1235
     54 H17         0.0026   -8.7066   -0.6416 H         1 <0>         0.1120
     55 H18        -2.8940   -9.0750    0.2539 H         1 <0>         0.1410
     56 H19        -1.4920   -8.7500    1.3015 H         1 <0>         0.1539
     57 H20        -0.2117   -6.8281   -0.7471 H         1 <0>         0.1354
     58 H21        -0.2666   -6.7013    1.0272 H         1 <0>         0.1416
     59 H22        -3.4615   -9.8391   -9.2171 H         1 <0>         0.1629
     60 H23        -3.9954  -11.2591  -11.4451 H         1 <0>         0.1612
     61 H24        -3.7597  -13.7928  -10.8237 H         1 <0>         0.2154
     62 H25        -1.8997  -13.4594   -2.1759 H         1 <0>         0.3684
     63 H26        -0.7125  -11.2371   -2.0947 H         1 <0>         0.4280
     64 H27        -2.6683   -6.7549    0.8601 H         1 <0>         0.4320
@<TRIPOS>BOND
     1    1    6 ar
     2    1    2 ar
     3    1   40 1
     4    2    3 ar
     5    2   41 1
     6    3    4 ar
     7    3   42 1
     8    4   10 ar
     9    4    5 ar
    10    5    6 ar
    11    5    7 ar
    12    6   43 1
    13    7    8 ar
    14    7   11 1
    15    8    9 ar
    16    9   10 ar
    17    9   44 1
    18   11   12 1
    19   12   13 1
    20   12   45 1
    21   12   46 1
    22   13   14 1
    23   13   24 1
    24   13   15 1
    25   15   16 1
    26   15   47 1
    27   15   48 1
    28   16   17 1
    29   16   49 1
    30   16   50 1
    31   17   18 1
    32   17   23 1
    33   17   19 1
    34   19   20 1
    35   19   51 1
    36   19   52 1
    37   20   21 1
    38   20   25 1
    39   21   22 1
    40   21   53 1
    41   21   54 1
    42   22   23 1
    43   22   55 1
    44   22   56 1
    45   23   24 1
    46   23   64 1
    47   24   57 1
    48   24   58 1
    49   25   30 2
    50   25   26 1
    51   26   27 1
    52   26   63 1
    53   27   28 1
    54   27   39 2
    55   28   33 1
    56   28   29 1
    57   29   30 1
    58   29   31 2
    59   31   32 1
    60   32   33 2
    61   32   34 1
    62   34   38 1
    63   34   35 2
    64   35   36 1
    65   35   59 1
    66   36   37 2
    67   36   60 1
    68   37   38 1
    69   37   61 1
    70   39   62 1
