@<TRIPOS>MOLECULE
CHEMBL368525
   65    69     0     0     0
SMALL
USER_CHARGES

@<TRIPOS>ATOM
      1 C1         -0.0403    1.4884    0.0147 C.3       1 <0>        -0.1659
      2 C2         -0.0220   -0.0412   -0.0116 C.3       1 <0>        -0.0872
      3 C3          0.7085   -0.5639    1.2270 C.3       1 <0>        -0.1659
      4 C4         -1.4583   -0.5684   -0.0171 C.3       1 <0>        -0.1473
      5 C5          0.7022   -0.5210   -1.2711 C.3       1 <0>        -0.0056
      6 N1          2.0812   -0.0148   -1.2659 N.4       1 <0>        -0.5100
      7 C6          2.7765   -0.4755   -2.4752 C.3       1 <0>         0.0268
      8 C7          2.9030   -2.0003   -2.4409 C.3       1 <0>        -0.1593
      9 C8          3.5975   -2.4799   -3.7194 C.3       1 <0>         0.1261
     10 N2          4.8772   -1.7711   -3.8568 N.pl3     1 <0>        -0.6365
     11 C9          4.8797   -0.3025   -3.8116 C.3       1 <0>         0.1259
     12 C10         4.1708    0.1527   -2.5321 C.3       1 <0>        -0.1592
     13 C11         6.0688   -2.4800   -4.0267 C.ar      1 <0>         0.1978
     14 C12         6.0686   -3.8683   -3.9525 C.ar      1 <0>        -0.1740
     15 C13         7.2453   -4.5732   -4.1199 C.ar      1 <0>        -0.0728
     16 C14         8.4280   -3.9035   -4.3618 C.ar      1 <0>        -0.1332
     17 C15         8.4382   -2.5110   -4.4380 C.ar      1 <0>        -0.0036
     18 C16         7.2512   -1.7996   -4.2750 C.ar      1 <0>        -0.1454
     19 C17         9.7070   -1.7903   -4.6977 C.2       1 <0>         0.2401
     20 C18        10.8814   -2.5003   -4.8703 C.2       1 <0>        -0.2063
     21 C19        12.0671   -1.7844   -5.1155 C.2       1 <0>         0.3505
     22 N3         13.3251   -2.1422   -5.3204 N.2       1 <0>        -0.5187
     23 C20        14.0761   -1.0522   -5.5072 C.2       1 <0>         0.3594
     24 N4         13.3143    0.0239   -5.4257 N.2       1 <0>        -0.3185
     25 N5         12.0084   -0.4151   -5.1729 N.pl3     1 <0>        -0.3618
     26 C21        10.8186    0.2229   -4.9940 C.2       1 <0>         0.6552
     27 N6          9.7132   -0.4502   -4.7704 N.2       1 <0>        -0.5546
     28 N7         10.7728    1.5963   -5.0535 N.pl3     1 <0>        -0.8075
     29 C22        15.5315   -1.0513   -5.7647 C.2       1 <0>         0.0290
     30 C23        16.3260   -2.1505   -5.8569 C.2       1 <0>        -0.1221
     31 C24        17.6326   -1.6870   -6.1084 C.2       1 <0>        -0.2191
     32 C25        17.5716   -0.3417   -6.1569 C.2       1 <0>        -0.0031
     33 O1         16.3000    0.0386   -5.9546 O.3       1 <0>        -0.1608
     34 H1          0.9830    1.8640    0.0185 H         1 <0>         0.0507
     35 H2         -0.5607    1.8608   -0.8678 H         1 <0>         0.0740
     36 H3         -0.5562    1.8302    0.9119 H         1 <0>         0.0854
     37 H4          0.1926   -0.2221    2.1243 H         1 <0>         0.0855
     38 H5          0.7215   -1.6537    1.2082 H         1 <0>         0.0739
     39 H6          1.7317   -0.1883    1.2308 H         1 <0>         0.0505
     40 H7         -1.9787   -0.1961   -0.8995 H         1 <0>         0.0688
     41 H8         -1.4452   -1.6582   -0.0358 H         1 <0>         0.0687
     42 H9         -1.9742   -0.2266    0.8802 H         1 <0>         0.0784
     43 H10         0.7152   -1.6108   -1.2899 H         1 <0>         0.1343
     44 H11         0.1818   -0.1487   -2.1535 H         1 <0>         0.1336
     45 H12         2.0691    0.9939   -1.2486 H         1 <0>         0.4257
     46 H13         2.2080   -0.1782   -3.3564 H         1 <0>         0.1408
     47 H14         3.4925   -2.2970   -1.5734 H         1 <0>         0.0925
     48 H15         1.9106   -2.4464   -2.3768 H         1 <0>         0.0979
     49 H16         3.7790   -3.5528   -3.6561 H         1 <0>         0.1044
     50 H17         2.9660   -2.2642   -4.5812 H         1 <0>         0.0748
     51 H18         5.9072    0.0612   -3.8093 H         1 <0>         0.1058
     52 H19         4.3527    0.0907   -4.6810 H         1 <0>         0.0747
     53 H20         4.0807    1.2389   -2.5329 H         1 <0>         0.0982
     54 H21         4.7484   -0.1643   -1.6638 H         1 <0>         0.0922
     55 H22         5.1463   -4.3972   -3.7630 H         1 <0>         0.1256
     56 H23         7.2397   -5.6516   -4.0609 H         1 <0>         0.1334
     57 H24         9.3456   -4.4580   -4.4918 H         1 <0>         0.1338
     58 H25         7.2528   -0.7215   -4.3379 H         1 <0>         0.1372
     59 H26        10.8879   -3.5790   -4.8177 H         1 <0>         0.1689
     60 H27        11.5835    2.1017   -5.2216 H         1 <0>         0.4261
     61 H28         9.9299    2.0594   -4.9273 H         1 <0>         0.4276
     62 H29        16.0158   -3.1801   -5.7563 H         1 <0>         0.1636
     63 H30        18.5158   -2.2949   -6.2379 H         1 <0>         0.1612
     64 H31        18.4064    0.3205   -6.3334 H         1 <0>         0.2150
     65 H32         2.5629   -0.3595   -0.4491 H         1 <0>         0.4241
@<TRIPOS>BOND
     1    1    2 1
     2    1   34 1
     3    1   35 1
     4    1   36 1
     5    2    3 1
     6    2    4 1
     7    2    5 1
     8    3   37 1
     9    3   38 1
    10    3   39 1
    11    4   40 1
    12    4   41 1
    13    4   42 1
    14    5    6 1
    15    5   43 1
    16    5   44 1
    17    6    7 1
    18    6   45 1
    19    6   65 1
    20    7   12 1
    21    7    8 1
    22    7   46 1
    23    8    9 1
    24    8   47 1
    25    8   48 1
    26    9   10 1
    27    9   49 1
    28    9   50 1
    29   10   11 1
    30   10   13 1
    31   11   12 1
    32   11   51 1
    33   11   52 1
    34   12   53 1
    35   12   54 1
    36   13   18 ar
    37   13   14 ar
    38   14   15 ar
    39   14   55 1
    40   15   16 ar
    41   15   56 1
    42   16   17 ar
    43   16   57 1
    44   17   18 ar
    45   17   19 1
    46   18   58 1
    47   19   27 1
    48   19   20 2
    49   20   21 1
    50   20   59 1
    51   21   25 1
    52   21   22 2
    53   22   23 1
    54   23   24 2
    55   23   29 1
    56   24   25 1
    57   25   26 1
    58   26   27 2
    59   26   28 1
    60   28   60 1
    61   28   61 1
    62   29   33 1
    63   29   30 2
    64   30   31 1
    65   30   62 1
    66   31   32 2
    67   31   63 1
    68   32   33 1
    69   32   64 1
