@<TRIPOS>MOLECULE
CHEMBL315150
   40    43     0     0     0
SMALL
USER_CHARGES

@<TRIPOS>ATOM
      1 C1         -0.0187    1.5258    0.0104 C.3       1 <0>        -0.1549
      2 C2          0.0021   -0.0041    0.0020 C.3       1 <0>        -0.0940
      3 C3          0.7182   -0.4975   -1.2568 C.3       1 <0>        -0.1484
      4 C4          0.7421   -0.5109    1.2415 C.3       1 <0>        -0.1290
      5 C5         -0.0416   -0.1236    2.4973 C.3       1 <0>         0.1265
      6 N1          0.6670   -0.6089    3.6841 N.pl3     1 <0>        -0.3391
      7 C6          1.0417    0.1526    4.7268 C.2       1 <0>         0.1598
      8 C7          1.6744   -0.6591    5.6325 C.2       1 <0>        -0.2762
      9 C8          1.6668   -2.0164    5.0642 C.2       1 <0>         0.3215
     10 N2          1.0508   -1.9366    3.9065 N.2       1 <0>        -0.2675
     11 N3          2.2420   -3.0201    5.7783 N.2       1 <0>        -0.5329
     12 C9          2.7939   -2.8094    6.9419 C.2       1 <0>         0.6843
     13 N4          2.8476   -1.5826    7.5480 N.pl3     1 <0>        -0.3798
     14 C10         2.3085   -0.4782    6.9444 C.2       1 <0>         0.4128
     15 N5          2.4994    0.5526    7.7366 N.2       1 <0>        -0.5152
     16 C11         3.1477    0.1579    8.8410 C.2       1 <0>         0.3414
     17 N6          3.3785   -1.1382    8.7680 N.2       1 <0>        -0.2896
     18 C12         3.5398    1.0355    9.9636 C.2       1 <0>         0.0444
     19 C13         4.2020    0.6476   11.0858 C.2       1 <0>        -0.1384
     20 C14         4.3663    1.8006   11.8790 C.2       1 <0>        -0.2189
     21 C15         3.8022    2.8245   11.2088 C.2       1 <0>        -0.0063
     22 O1          3.3084    2.3596   10.0499 O.3       1 <0>        -0.1534
     23 N7          3.3534   -3.8813    7.5975 N.pl3     1 <0>        -0.8081
     24 H1          1.0039    1.9031    0.0027 H         1 <0>         0.0573
     25 H2         -0.5459    1.8868   -0.8726 H         1 <0>         0.0592
     26 H3         -0.5289    1.8773    0.9072 H         1 <0>         0.0553
     27 H4         -1.0205   -0.3814    0.0098 H         1 <0>         0.0756
     28 H5          1.7408   -0.1202   -1.2645 H         1 <0>         0.0556
     29 H6          0.7330   -1.5874   -1.2628 H         1 <0>         0.0572
     30 H7          0.1910   -0.1364   -2.1398 H         1 <0>         0.0583
     31 H8          0.8346   -1.5958    1.1912 H         1 <0>         0.0833
     32 H9          1.7350   -0.0630    1.2804 H         1 <0>         0.0715
     33 H10        -0.1341    0.9613    2.5476 H         1 <0>         0.1076
     34 H11        -1.0345   -0.5716    2.4584 H         1 <0>         0.0964
     35 H12         0.8744    1.2143    4.8320 H         1 <0>         0.1973
     36 H13         4.5371   -0.3512   11.3235 H         1 <0>         0.1602
     37 H14         4.8524    1.8536   12.8419 H         1 <0>         0.1593
     38 H15         3.7582    3.8496   11.5459 H         1 <0>         0.2138
     39 H16         3.3305   -4.7628    7.1934 H         1 <0>         0.4297
     40 H17         3.7709   -3.7558    8.4640 H         1 <0>         0.4234
@<TRIPOS>BOND
     1    1    2 1
     2    1   24 1
     3    1   25 1
     4    1   26 1
     5    2    3 1
     6    2    4 1
     7    2   27 1
     8    3   28 1
     9    3   29 1
    10    3   30 1
    11    4    5 1
    12    4   31 1
    13    4   32 1
    14    5    6 1
    15    5   33 1
    16    5   34 1
    17    6   10 1
    18    6    7 1
    19    7    8 2
    20    7   35 1
    21    8   14 1
    22    8    9 1
    23    9   10 2
    24    9   11 1
    25   11   12 2
    26   12   13 1
    27   12   23 1
    28   13   17 1
    29   13   14 1
    30   14   15 2
    31   15   16 1
    32   16   17 2
    33   16   18 1
    34   18   22 1
    35   18   19 2
    36   19   20 1
    37   19   36 1
    38   20   21 2
    39   20   37 1
    40   21   22 1
    41   21   38 1
    42   23   39 1
    43   23   40 1
