@<TRIPOS>MOLECULE
CHEMBL248299
   45    49     0     0     0
SMALL
USER_CHARGES

@<TRIPOS>ATOM
      1 C1         -0.0162    1.3433    0.0094 C.2       1 <0>        -0.2206
      2 C2          1.3252    1.7743   -0.0011 C.2       1 <0>        -0.1276
      3 C3          2.0962    0.6548   -0.0144 C.2       1 <0>         0.0284
      4 O1          1.2797   -0.4166   -0.0124 O.3       1 <0>        -0.1516
      5 C4          0.0021   -0.0041    0.0020 C.2       1 <0>         0.0055
      6 C5          3.5737    0.6193   -0.0292 C.2       1 <0>         0.3587
      7 N1          4.3216   -0.4904   -0.0476 N.2       1 <0>        -0.4897
      8 C6          5.5988   -0.1630   -0.0576 C.2       1 <0>         0.3919
      9 C7          6.8477   -0.9205   -0.0777 C.2       1 <0>        -0.0172
     10 C8          8.0482   -0.2033   -0.0831 C.2       1 <0>         0.2895
     11 N2          8.0241    1.1346   -0.0704 N.2       1 <0>        -0.5644
     12 C9          6.9027    1.8137   -0.0530 C.2       1 <0>         0.6867
     13 N3          5.6823    1.2057   -0.0451 N.pl3     1 <0>        -0.3670
     14 N4          4.3634    1.6772   -0.0320 N.2       1 <0>        -0.2888
     15 N5          6.9595    3.1893   -0.0404 N.pl3     1 <0>        -0.7994
     16 N6          9.0487   -1.1423   -0.1025 N.pl3     1 <0>        -0.4629
     17 C10         8.4571   -2.3702   -0.1084 C.2       1 <0>         0.2253
     18 N7          7.1617   -2.2351   -0.0938 N.2       1 <0>        -0.4135
     19 C11        10.4889   -0.8741   -0.1146 C.3       1 <0>         0.0945
     20 C12        10.9820   -0.6711    1.3194 C.3       1 <0>        -0.0292
     21 N8         12.4261   -0.4022    1.3072 N.4       1 <0>        -0.3816
     22 C13        13.1412   -1.5880    0.8155 C.3       1 <0>        -0.0523
     23 C14        14.6455   -1.3052    0.8036 C.3       1 <0>         0.0365
     24 O2         15.0683   -0.9459    2.1219 O.3       1 <0>        -0.3549
     25 C15        14.3826    0.1907    2.6546 C.3       1 <0>         0.0365
     26 C16        12.8778   -0.0893    2.6700 C.3       1 <0>        -0.0424
     27 H1         -0.8931    1.9736    0.0252 H         1 <0>         0.1625
     28 H2          1.6736    2.7966    0.0011 H         1 <0>         0.1612
     29 H3         -0.8667   -0.6456    0.0072 H         1 <0>         0.2173
     30 H4          7.8188    3.6393   -0.0444 H         1 <0>         0.4296
     31 H5          6.1402    3.7084   -0.0274 H         1 <0>         0.4306
     32 H6          8.9832   -3.3133   -0.1235 H         1 <0>         0.2328
     33 H7         11.0121   -1.7190   -0.5626 H         1 <0>         0.1226
     34 H8         10.6860    0.0257   -0.6974 H         1 <0>         0.1179
     35 H9         10.4589    0.1737    1.7674 H         1 <0>         0.1412
     36 H10        10.7849   -1.5709    1.9022 H         1 <0>         0.1414
     37 H11        12.9355   -2.4344    1.4709 H         1 <0>         0.1439
     38 H12        12.8070   -1.8209   -0.1955 H         1 <0>         0.1435
     39 H13        15.1811   -2.1977    0.4801 H         1 <0>         0.1443
     40 H14        14.8562   -0.4848    0.1175 H         1 <0>         0.0829
     41 H15        14.7279    0.3807    3.6709 H         1 <0>         0.1440
     42 H16        14.5843    1.0623    2.0319 H         1 <0>         0.0829
     43 H17        12.3480    0.7903    3.0357 H         1 <0>         0.1441
     44 H18        12.6722   -0.9363    3.3247 H         1 <0>         0.1413
     45 H19        12.6173    0.3815    0.7012 H         1 <0>         0.4257
@<TRIPOS>BOND
     1    1    5 2
     2    1    2 1
     3    1   27 1
     4    2    3 2
     5    2   28 1
     6    3    4 1
     7    3    6 1
     8    4    5 1
     9    5   29 1
    10    6   14 2
    11    6    7 1
    12    7    8 2
    13    8   13 1
    14    8    9 1
    15    9   18 1
    16    9   10 2
    17   10   11 1
    18   10   16 1
    19   11   12 2
    20   12   13 1
    21   12   15 1
    22   13   14 1
    23   15   30 1
    24   15   31 1
    25   16   17 1
    26   16   19 1
    27   17   18 2
    28   17   32 1
    29   19   20 1
    30   19   33 1
    31   19   34 1
    32   20   21 1
    33   20   35 1
    34   20   36 1
    35   21   26 1
    36   21   22 1
    37   21   45 1
    38   22   23 1
    39   22   37 1
    40   22   38 1
    41   23   24 1
    42   23   39 1
    43   23   40 1
    44   24   25 1
    45   25   26 1
    46   25   41 1
    47   25   42 1
    48   26   43 1
    49   26   44 1
