@<TRIPOS>MOLECULE
CHEMBL1098458
   50    54     0     0     0
SMALL
USER_CHARGES

@<TRIPOS>ATOM
      1 C1         -0.0167    1.3793    0.0096 C.ar      1 <0>        -0.0912
      2 C2          1.1685    2.0928    0.0021 C.ar      1 <0>        -0.1333
      3 C3          2.3774    1.4278   -0.0129 C.ar      1 <0>        -0.0655
      4 C4          2.4029    0.0333   -0.0206 C.ar      1 <0>        -0.0836
      5 C5          1.2046   -0.6805   -0.0130 C.ar      1 <0>        -0.0592
      6 C6          0.0021   -0.0041    0.0020 C.ar      1 <0>        -0.1276
      7 C7          3.6972   -0.6867   -0.0373 C.ar      1 <0>         0.3425
      8 C8          3.8485   -1.9052    0.6418 C.ar      1 <0>        -0.3424
      9 C9          5.0990   -2.5520    0.5965 C.ar      1 <0>         0.2968
     10 N1          6.0850   -1.9873   -0.0846 N.ar      1 <0>        -0.5616
     11 C10         5.9021   -0.8317   -0.7150 C.ar      1 <0>         0.6019
     12 N2          4.7422   -0.1939   -0.7024 N.ar      1 <0>        -0.5668
     13 N3          6.9569   -0.2801   -1.4120 N.pl3     1 <0>        -0.8037
     14 C11         5.0073   -3.8086    1.3828 C.ar      1 <0>         0.0201
     15 C12         5.9358   -4.7988    1.6558 C.ar      1 <0>        -0.1390
     16 C13         5.5750   -5.8959    2.4403 C.ar      1 <0>         0.2360
     17 C14         4.2862   -5.9985    2.9488 C.ar      1 <0>        -0.1927
     18 C15         3.3534   -5.0149    2.6806 C.ar      1 <0>         0.0016
     19 C16         3.7034   -3.9174    1.9004 C.ar      1 <0>        -0.2000
     20 C17         2.9375   -2.7308    1.4534 C.2       1 <0>         0.4656
     21 O1          1.7751   -2.4843    1.7089 O.2       1 <0>        -0.4180
     22 N4          6.5081   -6.8890    2.7129 N.pl3     1 <0>        -0.7411
     23 C18         6.1322   -8.0414    3.5358 C.3       1 <0>         0.1291
     24 C19         7.3334   -8.9777    3.6812 C.3       1 <0>        -0.1191
     25 C20         6.9468  -10.1631    4.5276 C.ar      1 <0>         0.0478
     26 C21         7.0991  -10.1313    5.9054 C.ar      1 <0>        -0.1253
     27 C22         6.7336  -11.2374    6.6490 C.ar      1 <0>         0.1376
     28 N5          6.2459  -12.3132    6.0628 N.ar      1 <0>        -0.4466
     29 C23         6.0872  -12.3788    4.7553 C.ar      1 <0>         0.1376
     30 C24         6.4249  -11.3093    3.9477 C.ar      1 <0>        -0.1253
     31 H1         -0.9604    1.9042    0.0260 H         1 <0>         0.1274
     32 H2          1.1475    3.1726    0.0077 H         1 <0>         0.1292
     33 H3          3.3020    1.9859   -0.0191 H         1 <0>         0.1293
     34 H4          1.2180   -1.7604   -0.0193 H         1 <0>         0.1346
     35 H5         -0.9264   -0.5557    0.0082 H         1 <0>         0.1290
     36 H6          7.8133   -0.7350   -1.4359 H         1 <0>         0.4194
     37 H7          6.8423    0.5627   -1.8783 H         1 <0>         0.4221
     38 H8          6.9385   -4.7227    1.2620 H         1 <0>         0.1389
     39 H9          4.0125   -6.8494    3.5551 H         1 <0>         0.1316
     40 H10         2.3523   -5.0978    3.0772 H         1 <0>         0.1407
     41 H11         7.4083   -6.8192    2.3584 H         1 <0>         0.4080
     42 H12         5.8184   -7.6972    4.5212 H         1 <0>         0.0719
     43 H13         5.3106   -8.5758    3.0588 H         1 <0>         0.0719
     44 H14         7.6473   -9.3219    2.6958 H         1 <0>         0.1098
     45 H15         8.1551   -8.4433    4.1581 H         1 <0>         0.1098
     46 H16         7.4986   -9.2534    6.3913 H         1 <0>         0.1867
     47 H17         6.8491  -11.2206    7.7227 H         1 <0>         0.2121
     48 H18         5.6849  -13.2771    4.3108 H         1 <0>         0.2121
     49 H19         6.2880  -11.3672    2.8780 H         1 <0>         0.1867
     50 H20         5.9976  -13.0765    6.6075 H         1 <0>         0.4539
@<TRIPOS>BOND
     1    1    6 ar
     2    1    2 ar
     3    1   31 1
     4    2    3 ar
     5    2   32 1
     6    3    4 ar
     7    3   33 1
     8    4    5 ar
     9    4    7 1
    10    5    6 ar
    11    5   34 1
    12    6   35 1
    13    7   12 ar
    14    7    8 ar
    15    8   20 1
    16    8    9 ar
    17    9   10 ar
    18    9   14 1
    19   10   11 ar
    20   11   12 ar
    21   11   13 1
    22   13   36 1
    23   13   37 1
    24   14   19 ar
    25   14   15 ar
    26   15   16 ar
    27   15   38 1
    28   16   17 ar
    29   16   22 1
    30   17   18 ar
    31   17   39 1
    32   18   19 ar
    33   18   40 1
    34   19   20 1
    35   20   21 2
    36   22   23 1
    37   22   41 1
    38   23   24 1
    39   23   42 1
    40   23   43 1
    41   24   25 1
    42   24   44 1
    43   24   45 1
    44   25   30 ar
    45   25   26 ar
    46   26   27 ar
    47   26   46 1
    48   27   28 ar
    49   27   47 1
    50   28   29 ar
    51   28   50 1
    52   29   30 ar
    53   29   48 1
    54   30   49 1
