@<TRIPOS>MOLECULE
CHEMBL264431
   39    42     0     0     0
SMALL
USER_CHARGES

@<TRIPOS>ATOM
      1 C1         -0.0167    1.3781    0.0096 C.ar      1 <0>        -0.1062
      2 C2          1.1709    2.0855    0.0021 C.ar      1 <0>        -0.1212
      3 C3          2.3773    1.4107   -0.0130 C.ar      1 <0>        -0.0970
      4 C4          2.3960    0.0285   -0.0201 C.ar      1 <0>        -0.1178
      5 C5          1.2084   -0.6789   -0.0117 C.ar      1 <0>        -0.0971
      6 C6          0.0021   -0.0041    0.0020 C.ar      1 <0>        -0.1212
      7 C7          3.7112   -0.7071   -0.0376 C.3       1 <0>         0.1764
      8 N1          4.1518   -0.9524    1.3379 N.am      1 <0>        -0.7205
      9 C8          5.3108   -1.6005    1.5688 C.2       1 <0>         0.7082
     10 O1          5.9902   -1.9813    0.6361 O.2       1 <0>        -0.5089
     11 N2          5.7161   -1.8261    2.8342 N.am      1 <0>        -0.4702
     12 C9          5.0538   -1.4616    3.9776 C.2       1 <0>         0.2528
     13 N3          5.7319   -1.8385    5.0209 N.2       1 <0>        -0.4203
     14 C10         6.8660   -2.4654    4.6255 C.ar      1 <0>        -0.0990
     15 C11         6.8712   -2.4719    3.2201 C.ar      1 <0>         0.3674
     16 N4          7.8846   -3.0386    2.5785 N.ar      1 <0>        -0.5507
     17 C12         8.8821   -3.5963    3.2482 C.ar      1 <0>         0.6017
     18 N5          8.9216   -3.6182    4.5722 N.ar      1 <0>        -0.5481
     19 C13         7.9490   -3.0658    5.2988 C.ar      1 <0>         0.3791
     20 C14         7.9985   -3.0951    6.7706 C.2       1 <0>        -0.1444
     21 C15         8.4996   -4.0668    7.5998 C.2       1 <0>        -0.0946
     22 C16         8.4363   -3.8721    8.9595 C.2       1 <0>        -0.1693
     23 C17         7.8815   -2.7276    9.4402 C.2       1 <0>        -0.1665
     24 S1          7.4291   -1.8720    7.9401 S.3       1 <0>         0.1318
     25 N6          9.9205   -4.1776    2.5390 N.pl3     1 <0>        -0.8087
     26 H1         -0.9591    1.9053    0.0259 H         1 <0>         0.1254
     27 H2          1.1563    3.1654    0.0076 H         1 <0>         0.1263
     28 H3          3.3051    1.9634   -0.0196 H         1 <0>         0.1255
     29 H4          1.2231   -1.7588   -0.0176 H         1 <0>         0.1255
     30 H5         -0.9258   -0.5567    0.0082 H         1 <0>         0.1263
     31 H6          3.5884   -1.6586   -0.5549 H         1 <0>         0.0843
     32 H7          4.4573   -0.1052   -0.5563 H         1 <0>         0.0844
     33 H8          3.6095   -0.6484    2.0824 H         1 <0>         0.4037
     34 H9          4.1094   -0.9386    4.0074 H         1 <0>         0.2312
     35 H10         8.9350   -4.9673    7.1923 H         1 <0>         0.1407
     36 H11         8.8222   -4.6192    9.6373 H         1 <0>         0.1397
     37 H12         7.7513   -2.4150   10.4657 H         1 <0>         0.1913
     38 H13         9.9085   -4.1715    1.5691 H         1 <0>         0.4198
     39 H14        10.6595   -4.5908    3.0123 H         1 <0>         0.4201
@<TRIPOS>BOND
     1    1    6 ar
     2    1    2 ar
     3    1   26 1
     4    2    3 ar
     5    2   27 1
     6    3    4 ar
     7    3   28 1
     8    4    5 ar
     9    4    7 1
    10    5    6 ar
    11    5   29 1
    12    6   30 1
    13    7    8 1
    14    7   31 1
    15    7   32 1
    16    8    9 am
    17    8   33 1
    18    9   10 2
    19    9   11 am
    20   11   15 1
    21   11   12 1
    22   12   13 2
    23   12   34 1
    24   13   14 1
    25   14   19 ar
    26   14   15 ar
    27   15   16 ar
    28   16   17 ar
    29   17   18 ar
    30   17   25 1
    31   18   19 ar
    32   19   20 1
    33   20   24 1
    34   20   21 2
    35   21   22 1
    36   21   35 1
    37   22   23 2
    38   22   36 1
    39   23   24 1
    40   23   37 1
    41   25   38 1
    42   25   39 1
