@<TRIPOS>MOLECULE
CHEMBL476311
   28    30     0     0     0
SMALL
USER_CHARGES

@<TRIPOS>ATOM
      1 C1         -0.0162    1.3445    0.0094 C.2       1 <0>        -0.2231
      2 C2          1.3235    1.7757   -0.0010 C.2       1 <0>        -0.1311
      3 C3          2.0959    0.6545   -0.0144 C.2       1 <0>        -0.0026
      4 O1          1.2788   -0.4170   -0.0124 O.3       1 <0>        -0.1648
      5 C4          0.0021   -0.0041    0.0020 C.2       1 <0>        -0.0090
      6 C5          3.5702    0.6190   -0.0291 C.ar      1 <0>         0.2955
      7 C6          4.2257   -0.6106   -0.0477 C.ar      1 <0>        -0.1953
      8 C7          5.6208   -0.6389   -0.0621 C.ar      1 <0>         0.1389
      9 C8          6.3148    0.5955   -0.0570 C.ar      1 <0>        -0.1471
     10 C9          5.5738    1.7898   -0.0379 C.ar      1 <0>         0.4725
     11 N1          4.2526    1.7625   -0.0300 N.ar      1 <0>        -0.5291
     12 N2          6.2343    3.0062   -0.0322 N.pl3     1 <0>        -0.8325
     13 C10         7.7464    0.6265   -0.0707 C.1       1 <0>         0.2512
     14 N3          8.8821    0.6511   -0.0815 N.1       1 <0>        -0.3989
     15 C11         6.3521   -1.9186   -0.0814 C.2       1 <0>        -0.1516
     16 C12         6.1910   -3.0185    0.7223 C.2       1 <0>        -0.1132
     17 C13         6.9988   -4.1124    0.5152 C.2       1 <0>        -0.1633
     18 C14         7.9289   -4.0713   -0.4754 C.2       1 <0>        -0.1605
     19 S1          7.6728   -2.4435   -1.1621 S.3       1 <0>         0.0813
     20 H1         -0.8932    1.9746    0.0252 H         1 <0>         0.1559
     21 H2          1.6715    2.7981    0.0008 H         1 <0>         0.1600
     22 H3         -0.8669   -0.6454    0.0072 H         1 <0>         0.2114
     23 H4          3.6605   -1.5310   -0.0507 H         1 <0>         0.1530
     24 H5          7.2039    3.0317   -0.0414 H         1 <0>         0.4131
     25 H6          5.7275    3.8332   -0.0191 H         1 <0>         0.4146
     26 H7          5.4445   -3.0254    1.5028 H         1 <0>         0.1417
     27 H8          6.8957   -4.9928    1.1322 H         1 <0>         0.1416
     28 H9          8.6378   -4.8298   -0.7729 H         1 <0>         0.1914
@<TRIPOS>BOND
     1    1    5 2
     2    1    2 1
     3    1   20 1
     4    2    3 2
     5    2   21 1
     6    3    4 1
     7    3    6 1
     8    4    5 1
     9    5   22 1
    10    6   11 ar
    11    6    7 ar
    12    7    8 ar
    13    7   23 1
    14    8    9 ar
    15    8   15 1
    16    9   10 ar
    17    9   13 1
    18   10   11 ar
    19   10   12 1
    20   12   24 1
    21   12   25 1
    22   13   14 3
    23   15   19 1
    24   15   16 2
    25   16   17 1
    26   16   26 1
    27   17   18 2
    28   17   27 1
    29   18   19 1
    30   18   28 1
