@<TRIPOS>MOLECULE
CHEMBL398046
   41    45     0     0     0
SMALL
USER_CHARGES

@<TRIPOS>ATOM
      1 C1         -0.0167    1.3781    0.0096 C.ar      1 <0>        -0.1186
      2 C2          1.1709    2.0855    0.0021 C.ar      1 <0>        -0.1176
      3 C3          2.3773    1.4107   -0.0130 C.ar      1 <0>        -0.1116
      4 C4          2.3960    0.0285   -0.0201 C.ar      1 <0>        -0.0877
      5 C5          1.2084   -0.6789   -0.0117 C.ar      1 <0>        -0.1136
      6 C6          0.0021   -0.0041    0.0020 C.ar      1 <0>        -0.1176
      7 C7          3.7112   -0.7071   -0.0376 C.3       1 <0>        -0.0945
      8 C8          4.1714   -0.9633    1.3989 C.3       1 <0>         0.1153
      9 N1          5.4498   -1.6784    1.3820 N.pl3     1 <0>        -0.4513
     10 C9          5.6198   -3.0284    1.4633 C.2       1 <0>         0.2301
     11 N2          6.8894   -3.3160    1.4183 N.2       1 <0>        -0.4328
     12 C10         7.6047   -2.1745    1.3061 C.2       1 <0>        -0.0259
     13 C11         6.6954   -1.1124    1.2753 C.2       1 <0>         0.2886
     14 N3          7.1426    0.1437    1.1619 N.2       1 <0>        -0.5436
     15 C12         8.4200    0.4258    1.0738 C.2       1 <0>         0.6699
     16 N4          9.3826   -0.5397    1.0915 N.pl3     1 <0>        -0.3629
     17 C13         9.0279   -1.8587    1.2136 C.2       1 <0>         0.3978
     18 N5         10.1337   -2.5770    1.2057 N.2       1 <0>        -0.4999
     19 C14        11.1942   -1.7678    1.0987 C.2       1 <0>         0.3452
     20 N6         10.7811   -0.5165    1.0155 N.2       1 <0>        -0.2954
     21 C15        12.6048   -2.2073    1.0569 C.2       1 <0>         0.0436
     22 C16        13.6905   -1.3958    0.9539 C.2       1 <0>        -0.1377
     23 C17        14.8240   -2.2328    0.9502 C.2       1 <0>        -0.2201
     24 C18        14.3787   -3.5007    1.0501 C.2       1 <0>        -0.0043
     25 O1         13.0380   -3.4812    1.1202 O.3       1 <0>        -0.1516
     26 N7          8.8027    1.7434    0.9590 N.pl3     1 <0>        -0.8069
     27 H1         -0.9591    1.9053    0.0259 H         1 <0>         0.1229
     28 H2          1.1563    3.1654    0.0076 H         1 <0>         0.1235
     29 H3          3.3051    1.9634   -0.0196 H         1 <0>         0.1231
     30 H4          1.2231   -1.7588   -0.0176 H         1 <0>         0.1236
     31 H5         -0.9258   -0.5567    0.0082 H         1 <0>         0.1240
     32 H6          3.5884   -1.6586   -0.5549 H         1 <0>         0.0826
     33 H7          4.4573   -0.1052   -0.5563 H         1 <0>         0.0823
     34 H8          4.2941   -0.0118    1.9163 H         1 <0>         0.0998
     35 H9          3.4252   -1.5652    1.9176 H         1 <0>         0.1053
     36 H10         4.8220   -3.7508    1.5523 H         1 <0>         0.2283
     37 H11        13.6852   -0.3178    0.8874 H         1 <0>         0.1601
     38 H12        15.8546   -1.9178    0.8800 H         1 <0>         0.1594
     39 H13        14.9977   -4.3854    1.0744 H         1 <0>         0.2141
     40 H14         8.1319    2.4438    0.9443 H         1 <0>         0.4288
     41 H15         9.7433    1.9712    0.8927 H         1 <0>         0.4254
@<TRIPOS>BOND
     1    1    6 ar
     2    1    2 ar
     3    1   27 1
     4    2    3 ar
     5    2   28 1
     6    3    4 ar
     7    3   29 1
     8    4    5 ar
     9    4    7 1
    10    5    6 ar
    11    5   30 1
    12    6   31 1
    13    7    8 1
    14    7   32 1
    15    7   33 1
    16    8    9 1
    17    8   34 1
    18    8   35 1
    19    9   13 1
    20    9   10 1
    21   10   11 2
    22   10   36 1
    23   11   12 1
    24   12   17 1
    25   12   13 2
    26   13   14 1
    27   14   15 2
    28   15   16 1
    29   15   26 1
    30   16   20 1
    31   16   17 1
    32   17   18 2
    33   18   19 1
    34   19   20 2
    35   19   21 1
    36   21   25 1
    37   21   22 2
    38   22   23 1
    39   22   37 1
    40   23   24 2
    41   23   38 1
    42   24   25 1
    43   24   39 1
    44   26   40 1
    45   26   41 1
