@<TRIPOS>MOLECULE
CHEMBL604837
   55    59     0     0     0
SMALL
USER_CHARGES

@<TRIPOS>ATOM
      1 C1         -0.0164    1.3567    0.0095 C.ar      1 <0>        -0.1161
      2 C2          1.1685    2.0906    0.0021 C.ar      1 <0>        -0.1132
      3 C3          2.3785    1.4679   -0.0132 C.ar      1 <0>        -0.1102
      4 C4          2.4378    0.0637   -0.0214 C.ar      1 <0>        -0.0429
      5 C5          1.2328   -0.6827   -0.0134 C.ar      1 <0>        -0.0516
      6 C6          0.0021   -0.0041    0.0020 C.ar      1 <0>        -0.1054
      7 C7          1.2920   -2.0865   -0.0210 C.ar      1 <0>        -0.1039
      8 C8          2.5022   -2.7094   -0.0359 C.ar      1 <0>        -0.1148
      9 C9          3.6867   -1.9757   -0.0433 C.ar      1 <0>        -0.1056
     10 C10         3.6681   -0.6146   -0.0367 C.ar      1 <0>        -0.0717
     11 C11         4.9603    0.1606   -0.0459 C.3       1 <0>        -0.0817
     12 C12         5.3473    0.5240    1.3890 C.3       1 <0>         0.0836
     13 O1          6.5726    1.2592    1.3803 O.3       1 <0>        -0.2858
     14 C13         7.0580    1.6602    2.5802 C.ar      1 <0>         0.5684
     15 N1          6.3843    1.3496    3.6787 N.ar      1 <0>        -0.6305
     16 C14         6.8183    1.7196    4.8784 C.ar      1 <0>         0.5420
     17 C15         8.0149    2.4525    4.9633 C.ar      1 <0>        -0.1302
     18 C16         8.6936    2.7579    3.7724 C.ar      1 <0>         0.3411
     19 N2          8.1888    2.3425    2.6146 N.ar      1 <0>        -0.5679
     20 N3          9.8083    3.4666    4.1429 N.pl3     1 <0>        -0.4597
     21 C17         9.7897    3.5764    5.5025 C.2       1 <0>         0.2838
     22 N4          8.7369    2.9809    5.9817 N.2       1 <0>        -0.4613
     23 C18        10.8313    4.0059    3.2436 C.3       1 <0>         0.3166
     24 C19        10.4293    5.4217    2.7592 C.3       1 <0>         0.0750
     25 H1          9.7959    5.3688    1.8737 H         1 <0>         0.0982
     26 C20        11.8202    6.0223    2.4174 C.3       1 <0>         0.0486
     27 H2         12.1310    5.7342    1.4132 H         1 <0>         0.0917
     28 C21        12.7289    5.3708    3.4819 C.3       1 <0>         0.0599
     29 H3         12.8808    6.0615    4.3113 H         1 <0>         0.1081
     30 O2         12.0693    4.1882    3.9490 O.3       1 <0>        -0.3495
     31 C22        14.0772    5.0036    2.8589 C.3       1 <0>         0.0646
     32 O3         14.9524    4.5091    3.8746 O.3       1 <0>        -0.5615
     33 O4         11.8077    7.4446    2.5551 O.3       1 <0>        -0.5428
     34 O5          9.7904    6.1608    3.8021 O.3       1 <0>        -0.5335
     35 N5          6.1080    1.3911    6.0195 N.pl3     1 <0>        -0.8124
     36 H4         -0.9634    1.8756    0.0259 H         1 <0>         0.1235
     37 H5          1.1258    3.1698    0.0084 H         1 <0>         0.1232
     38 H6          3.2883    2.0497   -0.0195 H         1 <0>         0.1279
     39 H7         -0.9241   -0.5595    0.0082 H         1 <0>         0.1275
     40 H8          0.3820   -2.6682   -0.0147 H         1 <0>         0.1277
     41 H9          2.5450   -3.7886   -0.0417 H         1 <0>         0.1253
     42 H10         4.6338   -2.4947   -0.0548 H         1 <0>         0.1253
     43 H11         5.7467   -0.4491   -0.4909 H         1 <0>         0.0883
     44 H12         4.8331    1.0722   -0.6299 H         1 <0>         0.0873
     45 H13         4.5609    1.1338    1.8340 H         1 <0>         0.0735
     46 H14         5.4745   -0.3875    1.9730 H         1 <0>         0.0739
     47 H15        10.5383    4.0829    6.0938 H         1 <0>         0.2206
     48 H16        10.9753    3.3400    2.3927 H         1 <0>         0.1279
     49 H17        13.9297    4.2347    2.1005 H         1 <0>         0.0556
     50 H18        14.5178    5.8881    2.3987 H         1 <0>         0.0614
     51 H19        15.8277    4.2562    3.5506 H         1 <0>         0.3842
     52 H20        12.6538    7.8668    2.3526 H         1 <0>         0.3906
     53 H21         9.5215    7.0530    3.5440 H         1 <0>         0.3935
     54 H22         5.2834    0.8853    5.9486 H         1 <0>         0.4107
     55 H23         6.4347    1.6666    6.8903 H         1 <0>         0.4221
@<TRIPOS>BOND
     1    1    6 ar
     2    1    2 ar
     3    1   36 1
     4    2    3 ar
     5    2   37 1
     6    3    4 ar
     7    3   38 1
     8    4   10 ar
     9    4    5 ar
    10    5    6 ar
    11    5    7 ar
    12    6   39 1
    13    7    8 ar
    14    7   40 1
    15    8    9 ar
    16    8   41 1
    17    9   10 ar
    18    9   42 1
    19   10   11 1
    20   11   12 1
    21   11   43 1
    22   11   44 1
    23   12   13 1
    24   12   45 1
    25   12   46 1
    26   13   14 1
    27   14   19 ar
    28   14   15 ar
    29   15   16 ar
    30   16   17 ar
    31   16   35 1
    32   17   22 1
    33   17   18 ar
    34   18   19 ar
    35   18   20 1
    36   20   21 1
    37   20   23 1
    38   21   22 2
    39   21   47 1
    40   23   30 1
    41   23   24 1
    42   23   48 1
    43   24   25 1
    44   24   26 1
    45   24   34 1
    46   26   27 1
    47   26   28 1
    48   26   33 1
    49   28   29 1
    50   28   30 1
    51   28   31 1
    52   31   32 1
    53   31   49 1
    54   31   50 1
    55   32   51 1
    56   33   52 1
    57   34   53 1
    58   35   54 1
    59   35   55 1
