@<TRIPOS>MOLECULE
CHEMBL605668
   52    55     0     0     0
SMALL
USER_CHARGES

@<TRIPOS>ATOM
      1 C1         -0.0184    1.5028    0.0103 C.3       1 <0>        -0.1173
      2 C2          0.0021   -0.0041    0.0020 C.ar      1 <0>        -0.0849
      3 C3          0.0057   -0.6887   -1.1989 C.ar      1 <0>        -0.1195
      4 C4          0.0245   -2.0709   -1.2065 C.ar      1 <0>        -0.1071
      5 C5          0.0400   -2.7685   -0.0132 C.ar      1 <0>        -0.0900
      6 C6          0.0373   -2.0839    1.1877 C.ar      1 <0>        -0.1070
      7 C7          0.0229   -0.7016    1.1953 C.ar      1 <0>        -0.1194
      8 C8          0.0595   -4.2753   -0.0215 C.3       1 <0>        -0.0793
      9 C9          1.5084   -4.7666   -0.0322 C.3       1 <0>         0.0845
     10 O1          1.5268   -6.1955   -0.0401 O.3       1 <0>        -0.2862
     11 C10         2.7420   -6.7950   -0.0501 C.ar      1 <0>         0.5685
     12 N1          3.8292   -6.0367   -0.0466 N.ar      1 <0>        -0.6307
     13 C11         5.0430   -6.5763   -0.0560 C.ar      1 <0>         0.5419
     14 C12         5.1552   -7.9775   -0.0698 C.ar      1 <0>        -0.1306
     15 C13         3.9753   -8.7392   -0.0730 C.ar      1 <0>         0.3412
     16 N2          2.8015   -8.1148   -0.0576 N.ar      1 <0>        -0.5681
     17 N3          4.3724  -10.0523   -0.0870 N.pl3     1 <0>        -0.4598
     18 C14         5.7364  -10.0669   -0.0919 C.2       1 <0>         0.2838
     19 N4          6.1935   -8.8489   -0.0818 N.2       1 <0>        -0.4614
     20 C15         3.4928  -11.2238   -0.0945 C.3       1 <0>         0.3166
     21 C16         3.1201  -11.6073   -1.5487 C.3       1 <0>         0.0749
     22 H1          2.2466  -11.0516   -1.8899 H         1 <0>         0.0983
     23 C17         2.7933  -13.1163   -1.3812 C.3       1 <0>         0.0486
     24 H2          1.7646  -13.2558   -1.0489 H         1 <0>         0.0917
     25 C18         3.7888  -13.5471   -0.2827 C.3       1 <0>         0.0599
     26 H3          4.6623  -14.0139   -0.7378 H         1 <0>         0.1081
     27 O2          4.1833  -12.3690    0.4301 O.3       1 <0>        -0.3495
     28 C19         3.1127  -14.5323    0.6730 C.3       1 <0>         0.0646
     29 O3          4.0716  -15.0150    1.6162 O.3       1 <0>        -0.5615
     30 O4          3.0331  -13.8267   -2.5977 O.3       1 <0>        -0.5428
     31 O5          4.2267  -11.4141   -2.4320 O.3       1 <0>        -0.5335
     32 N5          6.1722   -5.7767   -0.0527 N.pl3     1 <0>        -0.8125
     33 H4          1.0042    1.8801    0.0026 H         1 <0>         0.0713
     34 H5         -0.5455    1.8639   -0.8728 H         1 <0>         0.0668
     35 H6         -0.5286    1.8543    0.9071 H         1 <0>         0.0668
     36 H7         -0.0064   -0.1436   -2.1312 H         1 <0>         0.1228
     37 H8          0.0266   -2.6057   -2.1448 H         1 <0>         0.1233
     38 H9          0.0491   -2.6289    2.1200 H         1 <0>         0.1234
     39 H10         0.0245   -0.1667    2.1335 H         1 <0>         0.1229
     40 H11        -0.4447   -4.6501    0.8693 H         1 <0>         0.0848
     41 H12        -0.4546   -4.6404   -0.9106 H         1 <0>         0.0846
     42 H13         2.0126   -4.3918   -0.9230 H         1 <0>         0.0725
     43 H14         2.0224   -4.4015    0.8569 H         1 <0>         0.0727
     44 H15         6.3467  -10.9579   -0.1026 H         1 <0>         0.2206
     45 H16         2.5935  -11.0246    0.4882 H         1 <0>         0.1279
     46 H17         2.3042  -14.0282    1.2024 H         1 <0>         0.0556
     47 H18         2.7082  -15.3700    0.1049 H         1 <0>         0.0614
     48 H19         3.7119  -15.6457    2.2549 H         1 <0>         0.3842
     49 H20         2.8437  -14.7734   -2.5441 H         1 <0>         0.3906
     50 H21         4.0391  -11.6414   -3.3530 H         1 <0>         0.3935
     51 H22         6.0825   -4.8109   -0.0434 H         1 <0>         0.4107
     52 H23         7.0535   -6.1819   -0.0597 H         1 <0>         0.4221
@<TRIPOS>BOND
     1    1    2 1
     2    1   33 1
     3    1   34 1
     4    1   35 1
     5    2    7 ar
     6    2    3 ar
     7    3    4 ar
     8    3   36 1
     9    4    5 ar
    10    4   37 1
    11    5    6 ar
    12    5    8 1
    13    6    7 ar
    14    6   38 1
    15    7   39 1
    16    8    9 1
    17    8   40 1
    18    8   41 1
    19    9   10 1
    20    9   42 1
    21    9   43 1
    22   10   11 1
    23   11   16 ar
    24   11   12 ar
    25   12   13 ar
    26   13   14 ar
    27   13   32 1
    28   14   19 1
    29   14   15 ar
    30   15   16 ar
    31   15   17 1
    32   17   18 1
    33   17   20 1
    34   18   19 2
    35   18   44 1
    36   20   27 1
    37   20   21 1
    38   20   45 1
    39   21   22 1
    40   21   23 1
    41   21   31 1
    42   23   24 1
    43   23   25 1
    44   23   30 1
    45   25   26 1
    46   25   27 1
    47   25   28 1
    48   28   29 1
    49   28   46 1
    50   28   47 1
    51   29   48 1
    52   30   49 1
    53   31   50 1
    54   32   51 1
    55   32   52 1
