@<TRIPOS>MOLECULE
CHEMBL575386
   57    62     0     0     0
SMALL
USER_CHARGES

@<TRIPOS>ATOM
      1 C1         -0.0187    1.5258    0.0104 C.3       1 <0>        -0.1523
      2 C2          0.0021   -0.0041    0.0020 C.3       1 <0>        -0.1202
      3 C3          0.7182   -0.4975   -1.2568 C.3       1 <0>        -0.1342
      4 C4          0.7390   -2.0273   -1.2652 C.3       1 <0>         0.1374
      5 N1          1.4247   -2.4998   -2.4705 N.pl3     1 <0>        -0.3586
      6 C5          2.4725   -3.3423   -2.4845 C.2       1 <0>         0.1341
      7 C6          2.8305   -3.5449   -3.7920 C.2       1 <0>        -0.2795
      8 C7          1.9061   -2.7469   -4.6141 C.2       1 <0>         0.3222
      9 N2          1.0840   -2.1469   -3.7816 N.2       1 <0>        -0.2988
     10 N3          2.0508   -2.7745   -5.9630 N.2       1 <0>        -0.4896
     11 C8          2.9832   -3.4866   -6.5438 C.2       1 <0>         0.6202
     12 N4          3.8878   -4.2602   -5.8583 N.pl3     1 <0>        -0.3281
     13 C9          3.8582   -4.3264   -4.4914 C.2       1 <0>         0.3786
     14 N5          4.8236   -5.1285   -4.1017 N.2       1 <0>        -0.5336
     15 C10         5.4848   -5.5903   -5.1718 C.2       1 <0>         0.2794
     16 N6          4.9461   -5.0861   -6.2647 N.2       1 <0>        -0.2436
     17 C11         6.6348   -6.5176   -5.1332 C.2       1 <0>         0.0790
     18 C12         7.3166   -6.9884   -6.2112 C.2       1 <0>        -0.1596
     19 C13         8.3265   -7.8360   -5.7142 C.2       1 <0>        -0.2145
     20 C14         8.2125   -7.8407   -4.3714 C.2       1 <0>        -0.0324
     21 O1          7.1933   -7.0387   -4.0237 O.3       1 <0>        -0.1577
     22 N7          3.0602   -3.4592   -7.9000 N.2       1 <0>        -0.6255
     23 C15         2.2186   -2.7368   -8.5865 C.2       1 <0>         0.4269
     24 O2          1.2742   -2.0187   -7.9515 O.3       1 <0>        -0.6282
     25 C16         2.3039   -2.7064  -10.0908 C.3       1 <0>        -0.0553
     26 C17         3.4373   -3.5883  -10.5476 C.ar      1 <0>        -0.0163
     27 C18         4.6662   -3.0541  -10.7871 C.ar      1 <0>        -0.1183
     28 C19         5.7261   -3.8536  -11.2099 C.ar      1 <0>        -0.1022
     29 C20         5.5633   -5.1922  -11.3962 C.ar      1 <0>        -0.1250
     30 C21         4.3092   -5.7796  -11.1590 C.ar      1 <0>        -0.0439
     31 C22         3.2326   -4.9673  -10.7229 C.ar      1 <0>        -0.0279
     32 C23         1.9797   -5.5560  -10.4800 C.ar      1 <0>        -0.0857
     33 C24         1.8187   -6.8952  -10.6605 C.ar      1 <0>        -0.1322
     34 C25         2.8790   -7.6951  -11.0832 C.ar      1 <0>        -0.1193
     35 C26         4.1027   -7.1579  -11.3409 C.ar      1 <0>        -0.1137
     36 H1          1.0039    1.9031    0.0027 H         1 <0>         0.0539
     37 H2         -0.5459    1.8868   -0.8726 H         1 <0>         0.0565
     38 H3         -0.5289    1.8773    0.9072 H         1 <0>         0.0538
     39 H4          0.5293   -0.3651    0.8851 H         1 <0>         0.0623
     40 H5         -1.0205   -0.3814    0.0098 H         1 <0>         0.0649
     41 H6          0.1910   -0.1364   -2.1398 H         1 <0>         0.0827
     42 H7          1.7408   -0.1202   -1.2645 H         1 <0>         0.0680
     43 H8          1.2661   -2.3884   -0.3821 H         1 <0>         0.0949
     44 H9         -0.2836   -2.4046   -1.2575 H         1 <0>         0.0858
     45 H10         2.9476   -3.7811   -1.6196 H         1 <0>         0.1825
     46 H11         7.1214   -6.7578   -7.2480 H         1 <0>         0.1584
     47 H12         9.0540   -8.3795   -6.2988 H         1 <0>         0.1525
     48 H13         8.8398   -8.3940   -3.6882 H         1 <0>         0.2061
     49 H14         1.3677   -3.0689  -10.5152 H         1 <0>         0.0897
     50 H15         2.4821   -1.6840  -10.4240 H         1 <0>         0.0906
     51 H16         4.8219   -1.9945  -10.6476 H         1 <0>         0.1148
     52 H17         6.6911   -3.4046  -11.3930 H         1 <0>         0.1143
     53 H18         6.3937   -5.7995  -11.7250 H         1 <0>         0.1173
     54 H19         1.1492   -4.9488  -10.1514 H         1 <0>         0.1223
     55 H20         0.8549   -7.3451  -10.4732 H         1 <0>         0.1144
     56 H21         2.7245   -8.7554  -11.2183 H         1 <0>         0.1139
     57 H22         4.9148   -7.7899  -11.6686 H         1 <0>         0.1189
@<TRIPOS>BOND
     1    1    2 1
     2    1   36 1
     3    1   37 1
     4    1   38 1
     5    2    3 1
     6    2   39 1
     7    2   40 1
     8    3    4 1
     9    3   41 1
    10    3   42 1
    11    4    5 1
    12    4   43 1
    13    4   44 1
    14    5    9 1
    15    5    6 1
    16    6    7 2
    17    6   45 1
    18    7   13 1
    19    7    8 1
    20    8    9 2
    21    8   10 1
    22   10   11 2
    23   11   12 1
    24   11   22 1
    25   12   16 1
    26   12   13 1
    27   13   14 2
    28   14   15 1
    29   15   16 2
    30   15   17 1
    31   17   21 1
    32   17   18 2
    33   18   19 1
    34   18   46 1
    35   19   20 2
    36   19   47 1
    37   20   21 1
    38   20   48 1
    39   22   23 2
    40   23   24 1
    41   23   25 1
    42   25   26 1
    43   25   49 1
    44   25   50 1
    45   26   31 ar
    46   26   27 ar
    47   27   28 ar
    48   27   51 1
    49   28   29 ar
    50   28   52 1
    51   29   30 ar
    52   29   53 1
    53   30   35 ar
    54   30   31 ar
    55   31   32 ar
    56   32   33 ar
    57   32   54 1
    58   33   34 ar
    59   33   55 1
    60   34   35 ar
    61   34   56 1
    62   35   57 1
