@<TRIPOS>MOLECULE
CHEMBL245848
   60    65     0     0     0
SMALL
USER_CHARGES

@<TRIPOS>ATOM
      1 C1          1.1695   -0.8282   -0.0017 C.3       1 <0>         0.0258
      2 O1          0.0021   -0.0041   -0.0007 O.3       1 <0>        -0.3160
      3 C2         -1.2012   -0.6379    0.0083 C.ar      1 <0>         0.0977
      4 C3         -1.2544   -2.0239    0.0217 C.ar      1 <0>        -0.1622
      5 C4         -2.4759   -2.6684    0.0308 C.ar      1 <0>        -0.1425
      6 C5         -3.6509   -1.9284    0.0266 C.ar      1 <0>         0.1572
      7 C6         -3.5967   -0.5409    0.0131 C.ar      1 <0>        -0.1430
      8 C7         -2.3743    0.1020    0.0097 C.ar      1 <0>        -0.1049
      9 N1         -4.8890   -2.5806    0.0353 N.pl3     1 <0>        -0.6453
     10 C8         -6.1434   -1.8208    0.1497 C.3       1 <0>         0.1020
     11 C9         -7.0908   -2.2766   -0.9650 C.3       1 <0>        -0.0216
     12 N2         -7.2569   -3.7341   -0.8993 N.4       1 <0>        -0.3772
     13 C10        -5.9756   -4.3964   -1.1743 C.3       1 <0>        -0.0294
     14 C11        -4.9732   -4.0451   -0.0757 C.3       1 <0>         0.1030
     15 C12        -8.2490   -4.1575   -1.8965 C.3       1 <0>        -0.0303
     16 C13        -8.5156   -5.6565   -1.7460 C.3       1 <0>         0.0939
     17 N3         -9.5049   -6.0788   -2.7406 N.pl3     1 <0>        -0.4625
     18 C14       -10.8503   -6.1809   -2.5467 C.2       1 <0>         0.2261
     19 N4        -11.4240   -6.5848   -3.6441 N.2       1 <0>        -0.4144
     20 C15       -10.4864   -6.7646   -4.6011 C.2       1 <0>        -0.0171
     21 C16        -9.2478   -6.4384   -4.0397 C.2       1 <0>         0.2894
     22 N5         -8.1374   -6.5243   -4.7815 N.2       1 <0>        -0.5639
     23 C17        -8.1621   -6.9053   -6.0357 C.2       1 <0>         0.6861
     24 N6         -9.3200   -7.2408   -6.6729 N.pl3     1 <0>        -0.3669
     25 C18       -10.5123   -7.1944   -5.9970 C.2       1 <0>         0.3921
     26 N7        -11.4645   -7.5634   -6.8312 N.2       1 <0>        -0.4900
     27 C19       -10.9286   -7.8628   -8.0204 C.2       1 <0>         0.3585
     28 N8         -9.6234   -7.6697   -7.9713 N.2       1 <0>        -0.2892
     29 C20       -11.6821   -8.3161   -9.2084 C.2       1 <0>         0.0287
     30 C21       -11.1495   -8.6283  -10.4195 C.2       1 <0>        -0.1278
     31 C22       -12.2231   -9.0081  -11.2493 C.2       1 <0>        -0.2206
     32 C23       -13.3463   -8.9100  -10.5113 C.2       1 <0>         0.0053
     33 O2        -13.0151   -8.4973   -9.2772 O.3       1 <0>        -0.1516
     34 N9         -6.9773   -6.9685   -6.7342 N.pl3     1 <0>        -0.7999
     35 H1          2.0590   -0.1982   -0.0092 H         1 <0>         0.1050
     36 H2          1.1741   -1.4527    0.8917 H         1 <0>         0.0568
     37 H3          1.1659   -1.4623   -0.8882 H         1 <0>         0.0562
     38 H4         -0.3404   -2.5992    0.0247 H         1 <0>         0.1342
     39 H5         -2.5171   -3.7475    0.0410 H         1 <0>         0.1259
     40 H6         -4.5101    0.0353    0.0098 H         1 <0>         0.1301
     41 H7         -2.3320    1.1811    0.0040 H         1 <0>         0.1376
     42 H8         -6.6007   -2.0127    1.1203 H         1 <0>         0.0890
     43 H9         -5.9376   -0.7557    0.0427 H         1 <0>         0.1278
     44 H10        -8.0600   -1.7942   -0.8382 H         1 <0>         0.1429
     45 H11        -6.6718   -2.0019   -1.9330 H         1 <0>         0.1339
     46 H12        -6.1230   -5.4760   -1.2018 H         1 <0>         0.1408
     47 H13        -5.5904   -4.0575   -2.1360 H         1 <0>         0.1361
     48 H14        -3.9941   -4.4500   -0.3316 H         1 <0>         0.1262
     49 H15        -5.3104   -4.4655    0.8718 H         1 <0>         0.0877
     50 H16        -9.1767   -3.6062   -1.7429 H         1 <0>         0.1426
     51 H17        -7.8674   -3.9550   -2.8973 H         1 <0>         0.1382
     52 H18        -7.5879   -6.2078   -1.8996 H         1 <0>         0.1165
     53 H19        -8.8971   -5.8591   -0.7453 H         1 <0>         0.1247
     54 H20       -11.3633   -5.9607   -1.6222 H         1 <0>         0.2331
     55 H21       -10.1054   -8.5920  -10.6930 H         1 <0>         0.1612
     56 H22       -12.1582   -9.3185  -12.2817 H         1 <0>         0.1624
     57 H23       -14.3463   -9.1310  -10.8541 H         1 <0>         0.2172
     58 H24        -6.1437   -6.7332   -6.2975 H         1 <0>         0.4292
     59 H25        -6.9762   -7.2482   -7.6630 H         1 <0>         0.4304
     60 H26        -7.5774   -3.9936    0.0216 H         1 <0>         0.4245
@<TRIPOS>BOND
     1    1    2 1
     2    1   35 1
     3    1   36 1
     4    1   37 1
     5    2    3 1
     6    3    8 ar
     7    3    4 ar
     8    4    5 ar
     9    4   38 1
    10    5    6 ar
    11    5   39 1
    12    6    7 ar
    13    6    9 1
    14    7    8 ar
    15    7   40 1
    16    8   41 1
    17    9   14 1
    18    9   10 1
    19   10   11 1
    20   10   42 1
    21   10   43 1
    22   11   12 1
    23   11   44 1
    24   11   45 1
    25   12   13 1
    26   12   15 1
    27   12   60 1
    28   13   14 1
    29   13   46 1
    30   13   47 1
    31   14   48 1
    32   14   49 1
    33   15   16 1
    34   15   50 1
    35   15   51 1
    36   16   17 1
    37   16   52 1
    38   16   53 1
    39   17   21 1
    40   17   18 1
    41   18   19 2
    42   18   54 1
    43   19   20 1
    44   20   25 1
    45   20   21 2
    46   21   22 1
    47   22   23 2
    48   23   24 1
    49   23   34 1
    50   24   28 1
    51   24   25 1
    52   25   26 2
    53   26   27 1
    54   27   28 2
    55   27   29 1
    56   29   33 1
    57   29   30 2
    58   30   31 1
    59   30   55 1
    60   31   32 2
    61   31   56 1
    62   32   33 1
    63   32   57 1
    64   34   58 1
    65   34   59 1
