@<TRIPOS>MOLECULE
CHEMBL1087078
   36    39     0     0     0
SMALL
USER_CHARGES

@<TRIPOS>ATOM
      1 C1          0.0180   -1.1779   -0.0044 C.1       1 <0>        -0.1450
      2 C2          0.0021   -0.0041    0.0020 C.1       1 <0>        -0.2105
      3 C3         -0.0179    1.4678    0.0101 C.3       1 <0>         0.1809
      4 O1          1.3227    1.9624   -0.0000 O.3       1 <0>        -0.2845
      5 C4          1.4820    3.3075    0.0057 C.ar      1 <0>         0.4249
      6 C5          2.7833    3.8782   -0.0096 C.ar      1 <0>        -0.1959
      7 C6          4.0830    3.1879   -0.0319 C.2       1 <0>        -0.0957
      8 C7          5.1813    3.9608   -0.0430 C.2       1 <0>        -0.1761
      9 S1          4.5727    5.6317   -0.0280 S.3       1 <0>         0.1680
     10 C8          2.8348    5.2857   -0.0029 C.ar      1 <0>         0.1421
     11 N1          1.7385    6.0158    0.0170 N.ar      1 <0>        -0.4894
     12 C9          0.5481    5.4295    0.0304 C.ar      1 <0>         0.4247
     13 N2          0.4304    4.1051    0.0200 N.ar      1 <0>        -0.5792
     14 C10        -0.6746    6.2676    0.0528 C.ar      1 <0>        -0.0530
     15 C11        -0.5700    7.6578    0.0536 C.ar      1 <0>        -0.0648
     16 C12        -1.7116    8.4328    0.0740 C.ar      1 <0>        -0.1301
     17 C13        -2.9579    7.8329    0.0939 C.ar      1 <0>        -0.0926
     18 C14        -3.0678    6.4539    0.0936 C.ar      1 <0>        -0.1312
     19 C15        -1.9333    5.6687    0.0671 C.ar      1 <0>        -0.0662
     20 C16         6.4482    3.1479   -0.0603 C.3       1 <0>        -0.0356
     21 C17         6.0073    1.7336    0.3765 C.3       1 <0>        -0.1171
     22 C18         4.5262    1.7221   -0.0498 C.3       1 <0>        -0.0610
     23 H1          0.0322   -2.2278   -0.0102 H         1 <0>         0.2269
     24 H2         -0.5451    1.8289   -0.8729 H         1 <0>         0.0971
     25 H3         -0.5281    1.8193    0.9069 H         1 <0>         0.0971
     26 H4          0.4025    8.1272    0.0387 H         1 <0>         0.1384
     27 H5         -1.6319    9.5099    0.0746 H         1 <0>         0.1306
     28 H6         -3.8486    8.4434    0.1102 H         1 <0>         0.1275
     29 H7         -4.0434    5.9910    0.1100 H         1 <0>         0.1298
     30 H8         -2.0204    4.5922    0.0624 H         1 <0>         0.1354
     31 H9          6.8695    3.1215   -1.0653 H         1 <0>         0.0911
     32 H10         7.1715    3.5558    0.6457 H         1 <0>         0.0851
     33 H11         6.5722    0.9673   -0.1543 H         1 <0>         0.0875
     34 H12         6.1039    1.6105    1.4553 H         1 <0>         0.0789
     35 H13         3.9348    1.1407    0.6576 H         1 <0>         0.0788
     36 H14         4.4261    1.3102   -1.0540 H         1 <0>         0.0831
@<TRIPOS>BOND
     1    1    2 3
     2    1   23 1
     3    2    3 1
     4    3    4 1
     5    3   24 1
     6    3   25 1
     7    4    5 1
     8    5   13 ar
     9    5    6 ar
    10    6   10 ar
    11    6    7 1
    12    7   22 1
    13    7    8 2
    14    8    9 1
    15    8   20 1
    16    9   10 1
    17   10   11 ar
    18   11   12 ar
    19   12   13 ar
    20   12   14 1
    21   14   19 ar
    22   14   15 ar
    23   15   16 ar
    24   15   26 1
    25   16   17 ar
    26   16   27 1
    27   17   18 ar
    28   17   28 1
    29   18   19 ar
    30   18   29 1
    31   19   30 1
    32   20   21 1
    33   20   31 1
    34   20   32 1
    35   21   22 1
    36   21   33 1
    37   21   34 1
    38   22   35 1
    39   22   36 1
