@<TRIPOS>MOLECULE
CHEMBL193613
   41    45     0     0     0
SMALL
USER_CHARGES

@<TRIPOS>ATOM
      1 C1         -0.0164    1.3567    0.0095 C.ar      1 <0>        -0.1189
      2 C2          1.1685    2.0906    0.0021 C.ar      1 <0>        -0.1024
      3 C3          2.3785    1.4679   -0.0132 C.ar      1 <0>        -0.1214
      4 C4          2.4378    0.0637   -0.0214 C.ar      1 <0>        -0.0304
      5 C5          1.2328   -0.6827   -0.0134 C.ar      1 <0>        -0.0575
      6 C6          0.0021   -0.0041    0.0020 C.ar      1 <0>        -0.0985
      7 C7          1.2920   -2.0865   -0.0210 C.ar      1 <0>        -0.0905
      8 C8          2.5022   -2.7094   -0.0359 C.ar      1 <0>        -0.1220
      9 C9          3.6867   -1.9757   -0.0433 C.ar      1 <0>        -0.0754
     10 C10         3.6681   -0.6146   -0.0367 C.ar      1 <0>        -0.1150
     11 C11         4.9603    0.1606   -0.0459 C.3       1 <0>         0.1555
     12 N1          5.3308    0.5086    1.3281 N.pl3     1 <0>        -0.4728
     13 C12         5.0463    1.6782    1.9694 C.2       1 <0>         0.2597
     14 N2          5.5241    1.6495    3.1800 N.2       1 <0>        -0.4488
     15 C13         6.1433    0.4649    3.3928 C.ar      1 <0>        -0.0880
     16 C14         6.0228   -0.2848    2.2086 C.ar      1 <0>         0.3340
     17 N3          6.5490   -1.5027    2.1571 N.ar      1 <0>        -0.5712
     18 C15         7.1782   -2.0121    3.2049 C.ar      1 <0>         0.5967
     19 N4          7.3152   -1.3466    4.3423 N.ar      1 <0>        -0.5491
     20 C16         6.8250   -0.1140    4.4821 C.ar      1 <0>         0.3625
     21 C17         6.9793    0.6191    5.7503 C.2       1 <0>         0.0106
     22 C18         6.9771    0.0699    6.9970 C.2       1 <0>        -0.1396
     23 C19         7.1532    1.1291    7.9063 C.2       1 <0>        -0.2230
     24 C20         7.2534    2.2616    7.1804 C.2       1 <0>        -0.0113
     25 O1          7.1530    1.9493    5.8793 O.3       1 <0>        -0.1485
     26 N5          7.7122   -3.2870    3.1085 N.pl3     1 <0>        -0.8156
     27 H1         -0.9634    1.8756    0.0259 H         1 <0>         0.1256
     28 H2          1.1258    3.1698    0.0084 H         1 <0>         0.1267
     29 H3          3.2883    2.0497   -0.0195 H         1 <0>         0.1226
     30 H4         -0.9241   -0.5595    0.0082 H         1 <0>         0.1287
     31 H5          0.3820   -2.6682   -0.0147 H         1 <0>         0.1298
     32 H6          2.5450   -3.7886   -0.0417 H         1 <0>         0.1269
     33 H7          4.6338   -2.4947   -0.0548 H         1 <0>         0.1288
     34 H8          5.7467   -0.4491   -0.4909 H         1 <0>         0.1064
     35 H9          4.8331    1.0722   -0.6299 H         1 <0>         0.1092
     36 H10         4.5045    2.5062    1.5366 H         1 <0>         0.2207
     37 H11         6.8624   -0.9760    7.2404 H         1 <0>         0.1558
     38 H12         7.1992    1.0503    8.9825 H         1 <0>         0.1553
     39 H13         7.3950    3.2549    7.5801 H         1 <0>         0.2099
     40 H14         7.6216   -3.7897    2.2839 H         1 <0>         0.4163
     41 H15         8.1766   -3.6768    3.8657 H         1 <0>         0.4184
@<TRIPOS>BOND
     1    1    6 ar
     2    1    2 ar
     3    1   27 1
     4    2    3 ar
     5    2   28 1
     6    3    4 ar
     7    3   29 1
     8    4   10 ar
     9    4    5 ar
    10    5    6 ar
    11    5    7 ar
    12    6   30 1
    13    7    8 ar
    14    7   31 1
    15    8    9 ar
    16    8   32 1
    17    9   10 ar
    18    9   33 1
    19   10   11 1
    20   11   12 1
    21   11   34 1
    22   11   35 1
    23   12   16 1
    24   12   13 1
    25   13   14 2
    26   13   36 1
    27   14   15 1
    28   15   20 ar
    29   15   16 ar
    30   16   17 ar
    31   17   18 ar
    32   18   19 ar
    33   18   26 1
    34   19   20 ar
    35   20   21 1
    36   21   25 1
    37   21   22 2
    38   22   23 1
    39   22   37 1
    40   23   24 2
    41   23   38 1
    42   24   25 1
    43   24   39 1
    44   26   40 1
    45   26   41 1
