@<TRIPOS>MOLECULE
CHEMBL595132
   41    43     0     0     0
SMALL
USER_CHARGES

@<TRIPOS>ATOM
      1 C1         -0.0184    1.5028    0.0103 C.3       1 <0>        -0.1192
      2 C2          0.0021   -0.0041    0.0020 C.ar      1 <0>        -0.1143
      3 C3          0.0059   -0.6996   -1.1977 C.ar      1 <0>        -0.0786
      4 C4          0.0249   -2.0852   -1.1570 C.ar      1 <0>        -0.1581
      5 C5          0.0392   -2.7228    0.0694 C.ar      1 <0>         0.0936
      6 N1          0.0346   -2.0288    1.1905 N.ar      1 <0>        -0.4643
      7 C6          0.0229   -0.7100    1.1897 C.ar      1 <0>         0.1005
      8 C7          0.0258    0.0356    2.4993 C.3       1 <0>         0.1692
      9 N2         -1.3544    0.2589    2.9371 N.am      1 <0>        -0.6997
     10 C8         -1.5981    0.9112    4.0910 C.2       1 <0>         0.5751
     11 O1         -0.6734    1.3140    4.7681 O.2       1 <0>        -0.5171
     12 C9         -2.9966    1.1375    4.5346 C.ar      1 <0>         0.1812
     13 C10        -3.2597    1.8154    5.7224 C.ar      1 <0>        -0.2222
     14 C11        -4.5943    2.0036    6.0976 C.ar      1 <0>         0.2703
     15 N3         -5.5580    1.5318    5.3122 N.ar      1 <0>        -0.5518
     16 C12        -5.2667    0.8921    4.1898 C.ar      1 <0>         0.5761
     17 N4         -4.0170    0.7000    3.7997 N.ar      1 <0>        -0.5563
     18 N5         -6.2989    0.4156    3.3997 N.pl3     1 <0>        -0.8184
     19 C13        -4.9293    2.7183    7.3529 C.ar      1 <0>        -0.0674
     20 C14        -3.9132    3.2144    8.1680 C.ar      1 <0>        -0.0853
     21 C15        -4.2309    3.8787    9.3352 C.ar      1 <0>        -0.1249
     22 C16        -5.5547    4.0527    9.6968 C.ar      1 <0>        -0.0966
     23 C17        -6.5673    3.5625    8.8918 C.ar      1 <0>        -0.1292
     24 C18        -6.2617    2.9016    7.7195 C.ar      1 <0>        -0.0679
     25 H1          1.0042    1.8801    0.0026 H         1 <0>         0.0790
     26 H2         -0.5455    1.8639   -0.8728 H         1 <0>         0.0728
     27 H3         -0.5286    1.8543    0.9071 H         1 <0>         0.0733
     28 H4         -0.0059   -0.1743   -2.1413 H         1 <0>         0.1379
     29 H5          0.0281   -2.6591   -2.0718 H         1 <0>         0.1387
     30 H6          0.0541   -3.8020    0.1097 H         1 <0>         0.1595
     31 H7          0.5547   -0.5512    3.2504 H         1 <0>         0.0915
     32 H8          0.5257    0.9955    2.3699 H         1 <0>         0.0916
     33 H9         -2.0927   -0.0627    2.3965 H         1 <0>         0.4133
     34 H10        -2.4538    2.1861    6.3385 H         1 <0>         0.1602
     35 H11        -7.2201    0.5522    3.6710 H         1 <0>         0.4170
     36 H12        -6.1008   -0.0548    2.5749 H         1 <0>         0.4163
     37 H13        -2.8792    3.0789    7.8869 H         1 <0>         0.1324
     38 H14        -3.4444    4.2632    9.9677 H         1 <0>         0.1306
     39 H15        -5.7987    4.5729   10.6113 H         1 <0>         0.1271
     40 H16        -7.5991    3.7009    9.1793 H         1 <0>         0.1285
     41 H17        -7.0531    2.5232    7.0895 H         1 <0>         0.1358
@<TRIPOS>BOND
     1    1    2 1
     2    1   25 1
     3    1   26 1
     4    1   27 1
     5    2    7 ar
     6    2    3 ar
     7    3    4 ar
     8    3   28 1
     9    4    5 ar
    10    4   29 1
    11    5    6 ar
    12    5   30 1
    13    6    7 ar
    14    7    8 1
    15    8    9 1
    16    8   31 1
    17    8   32 1
    18    9   10 am
    19    9   33 1
    20   10   11 2
    21   10   12 1
    22   12   17 ar
    23   12   13 ar
    24   13   14 ar
    25   13   34 1
    26   14   15 ar
    27   14   19 1
    28   15   16 ar
    29   16   17 ar
    30   16   18 1
    31   18   35 1
    32   18   36 1
    33   19   24 ar
    34   19   20 ar
    35   20   21 ar
    36   20   37 1
    37   21   22 ar
    38   21   38 1
    39   22   23 ar
    40   22   39 1
    41   23   24 ar
    42   23   40 1
    43   24   41 1
