@<TRIPOS>MOLECULE
CHEMBL369070
   51    55     0     0     0
SMALL
USER_CHARGES

@<TRIPOS>ATOM
      1 C1         -0.1569    2.4639    0.0048 C.ar      1 <0>        -0.1665
      2 C2          1.1635    2.8877    0.0037 C.ar      1 <0>        -0.0481
      3 C3          2.1642    1.9287   -0.0225 C.ar      1 <0>        -0.2116
      4 C4          1.8151    0.5914   -0.0465 C.ar      1 <0>         0.1306
      5 N1          0.5485    0.2249   -0.0451 N.ar      1 <0>        -0.4757
      6 C5         -0.4294    1.1094   -0.0201 C.ar      1 <0>         0.1336
      7 C6          3.6143    2.3389   -0.0253 C.3       1 <0>         0.0433
      8 N2          4.0958    2.4451    1.3585 N.4       1 <0>        -0.3847
      9 C7          3.3900    3.5464    2.0477 C.3       1 <0>        -0.0090
     10 C8          4.4547    4.1764    2.9799 C.3       1 <0>        -0.1454
     11 C9          5.7338    4.0758    2.1077 C.3       1 <0>        -0.1177
     12 C10         5.5404    2.7399    1.3599 C.3       1 <0>         0.0362
     13 H1          6.0805    1.9452    1.8747 H         1 <0>         0.1404
     14 C11         6.0465    2.8703   -0.0781 C.3       1 <0>         0.0761
     15 N3          7.4929    3.1023   -0.0676 N.2       1 <0>        -0.6312
     16 C12         8.1760    3.2527   -1.2567 C.2       1 <0>         0.5521
     17 N4          9.4958    3.4584   -1.2332 N.pl3     1 <0>        -0.5715
     18 C13        10.1746    3.6057   -2.3565 C.cat     1 <0>         0.7590
     19 N5          9.5157    3.5462   -3.5498 N.pl3     1 <0>        -0.4135
     20 C14         8.1617    3.3348   -3.5632 C.2       1 <0>         0.5538
     21 N6          7.5129    3.1852   -2.3994 N.2       1 <0>        -0.5854
     22 N7          7.7734    3.3203   -4.8276 N.2       1 <0>        -0.5239
     23 C15         8.8311    3.5150   -5.6255 C.2       1 <0>         0.4052
     24 N8          9.9149    3.6576   -4.8864 N.2       1 <0>        -0.3310
     25 C16         8.7910    3.5622   -7.1020 C.2       1 <0>         0.0157
     26 C17         7.6812    3.4223   -7.8748 C.2       1 <0>        -0.1086
     27 C18         8.1029    3.5345   -9.2145 C.2       1 <0>        -0.2215
     28 C19         9.4353    3.7352   -9.1935 C.2       1 <0>         0.0079
     29 O1          9.8467    3.7572   -7.9157 O.3       1 <0>        -0.1594
     30 N9         11.5282    3.8168   -2.3238 N.pl3     1 <0>        -0.7751
     31 H2         -0.9621    3.1833    0.0293 H         1 <0>         0.1492
     32 H3          1.4064    3.9398    0.0224 H         1 <0>         0.1418
     33 H4          2.5887   -0.1619   -0.0670 H         1 <0>         0.1617
     34 H5         -1.4551    0.7712   -0.0190 H         1 <0>         0.1690
     35 H6          4.2022    1.5916   -0.5582 H         1 <0>         0.1448
     36 H7          3.7179    3.3040   -0.5212 H         1 <0>         0.1399
     37 H8          3.0359    4.2813    1.3248 H         1 <0>         0.1278
     38 H9          2.5570    3.1560    2.6323 H         1 <0>         0.1299
     39 H10         4.2138    5.2162    3.2011 H         1 <0>         0.1139
     40 H11         4.5615    3.5982    3.8976 H         1 <0>         0.0970
     41 H12         5.7870    4.9069    1.4044 H         1 <0>         0.0946
     42 H13         6.6254    4.0416    2.7337 H         1 <0>         0.1116
     43 H14         5.8297    1.9522   -0.6242 H         1 <0>         0.0674
     44 H15         5.5475    3.7087   -0.5642 H         1 <0>         0.0673
     45 H16         6.6717    3.2569   -7.5288 H         1 <0>         0.1653
     46 H17         7.4767    3.4712  -10.0922 H         1 <0>         0.1632
     47 H18        10.0667    3.8620  -10.0605 H         1 <0>         0.2175
     48 H19        11.9921    3.8586   -1.4729 H         1 <0>         0.4391
     49 H20        12.0224    3.9244   -3.1514 H         1 <0>         0.4509
     50 H21         3.9256    1.5780    1.8455 H         1 <0>         0.4244
     51 H22         9.9601    3.5003   -0.3825 H         1 <0>         0.4497
@<TRIPOS>BOND
     1    1    6 ar
     2    1    2 ar
     3    1   31 1
     4    2    3 ar
     5    2   32 1
     6    3    4 ar
     7    3    7 1
     8    4    5 ar
     9    4   33 1
    10    5    6 ar
    11    6   34 1
    12    7    8 1
    13    7   35 1
    14    7   36 1
    15    8   12 1
    16    8    9 1
    17    8   50 1
    18    9   10 1
    19    9   37 1
    20    9   38 1
    21   10   11 1
    22   10   39 1
    23   10   40 1
    24   11   12 1
    25   11   41 1
    26   11   42 1
    27   12   13 1
    28   12   14 1
    29   14   15 1
    30   14   43 1
    31   14   44 1
    32   15   16 1
    33   16   21 2
    34   16   17 1
    35   17   18 2
    36   17   51 1
    37   18   19 1
    38   18   30 1
    39   19   24 1
    40   19   20 1
    41   20   21 1
    42   20   22 2
    43   22   23 1
    44   23   24 2
    45   23   25 1
    46   25   29 1
    47   25   26 2
    48   26   27 1
    49   26   45 1
    50   27   28 2
    51   27   46 1
    52   28   29 1
    53   28   47 1
    54   30   48 1
    55   30   49 1
