@<TRIPOS>MOLECULE
CHEMBL558291
   33    35     0     0     0
SMALL
USER_CHARGES

@<TRIPOS>ATOM
      1 C1         -0.0162    1.3409    0.0094 C.2       1 <0>        -0.2183
      2 C2          1.3313    1.7689   -0.0012 C.2       1 <0>        -0.1778
      3 C3          2.0923    0.6599   -0.0144 C.2       1 <0>        -0.0440
      4 O1          1.2819   -0.4111   -0.0124 O.3       1 <0>        -0.1707
      5 C4          0.0021   -0.0041    0.0020 C.2       1 <0>        -0.0245
      6 C5          3.5989    0.6249   -0.0294 C.3       1 <0>         0.2018
      7 N1          4.1006    0.6065    1.3469 N.am      1 <0>        -0.7058
      8 C6          5.4277    0.5745    1.5799 C.2       1 <0>         0.5763
      9 O2          6.2078    0.5610    0.6487 O.2       1 <0>        -0.5142
     10 C7          5.9361    0.5558    2.9742 C.ar      1 <0>         0.1829
     11 C8          7.3040    0.5286    3.2255 C.ar      1 <0>        -0.2132
     12 C9          7.7346    0.5117    4.5603 C.ar      1 <0>         0.3054
     13 N2          6.8234    0.5223    5.5327 N.ar      1 <0>        -0.5444
     14 C10         5.5304    0.5483    5.2495 C.ar      1 <0>         0.5816
     15 N3          5.0883    0.5704    4.0024 N.ar      1 <0>        -0.5531
     16 N4          4.6146    0.5581    6.2878 N.pl3     1 <0>        -0.8157
     17 C11         9.1735    0.4822    4.8827 C.2       1 <0>        -0.0057
     18 C12         9.7122    0.4583    6.1329 C.2       1 <0>        -0.1258
     19 C13        11.1099    0.4345    5.9714 C.2       1 <0>        -0.2242
     20 C14        11.3552    0.4448    4.6450 C.2       1 <0>        -0.0034
     21 O3         10.1839    0.4682    3.9911 O.3       1 <0>        -0.1620
     22 H1         -0.8920    1.9726    0.0252 H         1 <0>         0.1521
     23 H2          1.6822    2.7903    0.0004 H         1 <0>         0.1519
     24 H3         -0.8653   -0.6475    0.0072 H         1 <0>         0.2064
     25 H4          3.9364   -0.2706   -0.5512 H         1 <0>         0.0914
     26 H5          3.9777    1.5089   -0.5424 H         1 <0>         0.1054
     27 H6          3.4778    0.6173    2.0904 H         1 <0>         0.4160
     28 H7          8.0162    0.5203    2.4136 H         1 <0>         0.1636
     29 H8          4.9237    0.5459    7.2071 H         1 <0>         0.4182
     30 H9          3.6640    0.5772    6.0958 H         1 <0>         0.4182
     31 H10         9.1714    0.4582    7.0678 H         1 <0>         0.1605
     32 H11        11.8470    0.4124    6.7604 H         1 <0>         0.1577
     33 H12        12.3325    0.4326    4.1855 H         1 <0>         0.2134
@<TRIPOS>BOND
     1    1    5 2
     2    1    2 1
     3    1   22 1
     4    2    3 2
     5    2   23 1
     6    3    4 1
     7    3    6 1
     8    4    5 1
     9    5   24 1
    10    6    7 1
    11    6   25 1
    12    6   26 1
    13    7    8 am
    14    7   27 1
    15    8    9 2
    16    8   10 1
    17   10   15 ar
    18   10   11 ar
    19   11   12 ar
    20   11   28 1
    21   12   13 ar
    22   12   17 1
    23   13   14 ar
    24   14   15 ar
    25   14   16 1
    26   16   29 1
    27   16   30 1
    28   17   21 1
    29   17   18 2
    30   18   19 1
    31   18   31 1
    32   19   20 2
    33   19   32 1
    34   20   21 1
    35   20   33 1
