@<TRIPOS>MOLECULE
CHEMBL608029
   53    56     0     0     0
SMALL
USER_CHARGES

@<TRIPOS>ATOM
      1 C1         -0.0187    1.5258    0.0104 C.3       1 <0>        -0.1547
      2 C2          0.0021   -0.0041    0.0020 C.3       1 <0>        -0.1252
      3 C3          0.7182   -0.4975   -1.2568 C.3       1 <0>        -0.1181
      4 C4          0.7390   -2.0273   -1.2652 C.3       1 <0>        -0.0123
      5 C5          1.4280   -2.5020   -2.4763 C.1       1 <0>        -0.0831
      6 C6          1.9775   -2.8806   -3.4422 C.1       1 <0>        -0.1297
      7 C7          2.6477   -3.3425   -4.6204 C.ar      1 <0>         0.5017
      8 N1          3.1294   -2.4472   -5.4786 N.ar      1 <0>        -0.5722
      9 C8          3.7578   -2.8264   -6.5837 C.ar      1 <0>         0.5147
     10 C9          3.9074   -4.2029   -6.8346 C.ar      1 <0>        -0.1033
     11 C10         3.3824   -5.1125   -5.8997 C.ar      1 <0>         0.3171
     12 N2          2.7722   -4.6477   -4.8166 N.ar      1 <0>        -0.5299
     13 N3          3.6662   -6.3633   -6.3886 N.pl3     1 <0>        -0.4708
     14 C11         4.3329   -6.1995   -7.5664 C.2       1 <0>         0.2695
     15 N4          4.4731   -4.9317   -7.8258 N.2       1 <0>        -0.4566
     16 C12         3.3173   -7.6398   -5.7599 C.3       1 <0>         0.3138
     17 C13         1.9098   -8.0926   -6.2074 C.3       1 <0>         0.0808
     18 H1          1.6519   -7.6453   -7.1673 H         1 <0>         0.0905
     19 C14         2.0338   -9.6269   -6.3409 C.3       1 <0>         0.0511
     20 H2          1.8371   -9.9381   -7.3669 H         1 <0>         0.0920
     21 C15         3.5015   -9.9196   -5.9583 C.3       1 <0>         0.0330
     22 H3          3.5734  -10.1829   -4.9031 H         1 <0>         0.1215
     23 O1          4.2037   -8.6843   -6.2172 O.3       1 <0>        -0.3266
     24 C16         4.0553  -11.0297   -6.8139 C.2       1 <0>         0.5227
     25 O2          4.9619  -10.8046   -7.5874 O.2       1 <0>        -0.5010
     26 N5          3.5431  -12.2728   -6.7195 N.am      1 <0>        -0.6983
     27 C17         4.0814  -13.3520   -7.5512 C.3       1 <0>         0.0752
     28 C18         3.0795  -14.2954   -8.2199 C.3       1 <0>        -0.1897
     29 C19         3.9212  -14.7850   -7.0397 C.3       1 <0>        -0.1850
     30 O3          1.1385  -10.2819   -5.4400 O.3       1 <0>        -0.5311
     31 O4          0.9360   -7.7503   -5.2191 O.3       1 <0>        -0.5233
     32 N6          4.2552   -1.8882   -7.4712 N.pl3     1 <0>        -0.8141
     33 H4          1.0039    1.9031    0.0027 H         1 <0>         0.0543
     34 H5         -0.5459    1.8868   -0.8726 H         1 <0>         0.0547
     35 H6         -0.5289    1.8773    0.9072 H         1 <0>         0.0551
     36 H7          0.5293   -0.3651    0.8851 H         1 <0>         0.0645
     37 H8         -1.0205   -0.3814    0.0098 H         1 <0>         0.0647
     38 H9          0.1910   -0.1364   -2.1398 H         1 <0>         0.0696
     39 H10         1.7408   -0.1202   -1.2645 H         1 <0>         0.0682
     40 H11         1.2661   -2.3884   -0.3821 H         1 <0>         0.0953
     41 H12        -0.2836   -2.4046   -1.2575 H         1 <0>         0.0960
     42 H13         4.6924   -7.0033   -8.1918 H         1 <0>         0.2279
     43 H14         3.3623   -7.5521   -4.6744 H         1 <0>         0.1292
     44 H15         2.8180  -12.4528   -6.1009 H         1 <0>         0.3995
     45 H16         4.9918  -13.1125   -8.1007 H         1 <0>         0.1419
     46 H17         2.0199  -14.1130   -8.0410 H         1 <0>         0.0986
     47 H18         3.3306  -14.6767   -9.2097 H         1 <0>         0.1062
     48 H19         4.7260  -15.4885   -7.2531 H         1 <0>         0.1076
     49 H20         3.4152  -14.9248   -6.0845 H         1 <0>         0.1000
     50 H21         1.1749  -11.2473   -5.4819 H         1 <0>         0.3824
     51 H22         0.0338   -8.0117   -5.4489 H         1 <0>         0.3922
     52 H23         4.1460   -0.9419   -7.2882 H         1 <0>         0.4122
     53 H24         4.7130   -2.1769   -8.2762 H         1 <0>         0.4212
@<TRIPOS>BOND
     1    1    2 1
     2    1   33 1
     3    1   34 1
     4    1   35 1
     5    2    3 1
     6    2   36 1
     7    2   37 1
     8    3    4 1
     9    3   38 1
    10    3   39 1
    11    4    5 1
    12    4   40 1
    13    4   41 1
    14    5    6 3
    15    6    7 1
    16    7   12 ar
    17    7    8 ar
    18    8    9 ar
    19    9   10 ar
    20    9   32 1
    21   10   15 1
    22   10   11 ar
    23   11   12 ar
    24   11   13 1
    25   13   14 1
    26   13   16 1
    27   14   15 2
    28   14   42 1
    29   16   23 1
    30   16   17 1
    31   16   43 1
    32   17   18 1
    33   17   19 1
    34   17   31 1
    35   19   20 1
    36   19   21 1
    37   19   30 1
    38   21   22 1
    39   21   23 1
    40   21   24 1
    41   24   25 2
    42   24   26 am
    43   26   27 1
    44   26   44 1
    45   27   29 1
    46   27   28 1
    47   27   45 1
    48   28   29 1
    49   28   46 1
    50   28   47 1
    51   29   48 1
    52   29   49 1
    53   30   50 1
    54   31   51 1
    55   32   52 1
    56   32   53 1
