@<TRIPOS>MOLECULE
CHEMBL1087183
   61    65     0     0     0
SMALL
USER_CHARGES

@<TRIPOS>ATOM
      1 C1         -0.0187    1.5258    0.0104 C.3       1 <0>        -0.1850
      2 C2          0.0021   -0.0041    0.0020 C.3       1 <0>         0.0230
      3 C3          0.7421   -0.5109    1.2415 C.3       1 <0>        -0.1847
      4 N1         -1.3761   -0.5125    0.0124 N.4       1 <0>        -0.3832
      5 C4         -1.3545   -1.9802    0.0134 C.3       1 <0>        -0.0065
      6 C5         -2.7852   -2.5150    0.1060 C.3       1 <0>        -0.1557
      7 C6         -3.5900   -2.0155   -1.0974 C.3       1 <0>         0.1366
      8 C7         -3.5435   -0.4852   -1.1304 C.3       1 <0>        -0.1610
      9 C8         -2.0847   -0.0255   -1.1772 C.3       1 <0>        -0.0075
     10 N2         -4.9804   -2.4609   -0.9758 N.am      1 <0>        -0.7262
     11 C9         -5.7427   -2.5986   -2.0787 C.2       1 <0>         0.5694
     12 O1         -5.2767   -2.3534   -3.1740 O.2       1 <0>        -0.5158
     13 C10        -7.1471   -3.0485   -1.9559 C.ar      1 <0>        -0.1231
     14 C11        -7.6821   -3.3239   -0.6993 C.ar      1 <0>        -0.0715
     15 C12        -8.9958   -3.7450   -0.5812 C.ar      1 <0>        -0.0583
     16 C13        -9.7837   -3.8940   -1.7146 C.ar      1 <0>        -0.1094
     17 C14        -9.2509   -3.6180   -2.9856 C.ar      1 <0>        -0.0358
     18 C15        -7.9372   -3.1911   -3.1007 C.ar      1 <0>        -0.0105
     19 C16       -10.3053   -3.8608   -4.0026 C.ar      1 <0>         0.3026
     20 C17       -11.4764   -4.2843   -3.3419 C.ar      1 <0>        -0.3501
     21 C18       -12.6141   -4.5741   -4.1111 C.ar      1 <0>         0.3499
     22 N3        -12.5399   -4.4367   -5.4352 N.ar      1 <0>        -0.5663
     23 C19       -11.4199   -4.0361   -6.0156 C.ar      1 <0>         0.6064
     24 N4        -10.3215   -3.7520   -5.3225 N.ar      1 <0>        -0.5599
     25 N5        -11.3912   -3.9087   -7.3884 N.pl3     1 <0>        -0.8002
     26 C20       -13.8694   -5.0232   -3.4661 C.ar      1 <0>        -0.0858
     27 C21       -13.8228   -5.8295   -2.3289 C.ar      1 <0>        -0.0605
     28 C22       -14.9957   -6.2443   -1.7322 C.ar      1 <0>        -0.1269
     29 C23       -16.2163   -5.8619   -2.2596 C.ar      1 <0>        -0.0896
     30 C24       -16.2691   -5.0626   -3.3876 C.ar      1 <0>        -0.1323
     31 C25       -15.1030   -4.6367   -3.9900 C.ar      1 <0>        -0.0641
     32 C26       -11.1964   -4.3207   -1.8976 C.2       1 <0>         0.4602
     33 O2        -11.9731   -4.6399   -1.0199 O.2       1 <0>        -0.4006
     34 H1          1.0039    1.9031    0.0027 H         1 <0>         0.1064
     35 H2         -0.5459    1.8868   -0.8726 H         1 <0>         0.0824
     36 H3         -0.5289    1.8773    0.9072 H         1 <0>         0.0812
     37 H4          0.5123   -0.3556   -0.8948 H         1 <0>         0.1372
     38 H5          0.2319   -0.1594    2.1383 H         1 <0>         0.0813
     39 H6          0.7568   -1.6008    1.2356 H         1 <0>         0.0821
     40 H7          1.7647   -0.1336    1.2338 H         1 <0>         0.1064
     41 H8         -0.8927   -2.3369   -0.9073 H         1 <0>         0.1330
     42 H9         -0.7787   -2.3341    0.8685 H         1 <0>         0.1394
     43 H10        -2.7672   -3.6049    0.1047 H         1 <0>         0.1211
     44 H11        -3.2480   -2.1591    1.0264 H         1 <0>         0.0953
     45 H12        -3.1576   -2.4132   -2.0155 H         1 <0>         0.1085
     46 H13        -4.0675   -0.1241   -2.0153 H         1 <0>         0.1185
     47 H14        -4.0220   -0.0871   -0.2355 H         1 <0>         0.0916
     48 H15        -2.0480    1.0636   -1.2009 H         1 <0>         0.1372
     49 H16        -1.6073   -0.4239   -2.0724 H         1 <0>         0.1323
     50 H17        -5.3523   -2.6566   -0.1016 H         1 <0>         0.4070
     51 H18        -7.0712   -3.2091    0.1839 H         1 <0>         0.1399
     52 H19        -9.4081   -3.9582    0.3939 H         1 <0>         0.1513
     53 H20        -7.5229   -2.9731   -4.0739 H         1 <0>         0.1539
     54 H21       -12.1829   -4.1115   -7.9109 H         1 <0>         0.4233
     55 H22       -10.5794   -3.6164   -7.8315 H         1 <0>         0.4209
     56 H23       -12.8706   -6.1289   -1.9165 H         1 <0>         0.1332
     57 H24       -14.9610   -6.8689   -0.8519 H         1 <0>         0.1299
     58 H25       -17.1317   -6.1891   -1.7891 H         1 <0>         0.1284
     59 H26       -17.2249   -4.7677   -3.7949 H         1 <0>         0.1301
     60 H27       -15.1455   -4.0090   -4.8678 H         1 <0>         0.1301
     61 H28        -1.8482   -0.1846    0.8417 H         1 <0>         0.4205
@<TRIPOS>BOND
     1    1    2 1
     2    1   34 1
     3    1   35 1
     4    1   36 1
     5    2    3 1
     6    2    4 1
     7    2   37 1
     8    3   38 1
     9    3   39 1
    10    3   40 1
    11    4    9 1
    12    4    5 1
    13    4   61 1
    14    5    6 1
    15    5   41 1
    16    5   42 1
    17    6    7 1
    18    6   43 1
    19    6   44 1
    20    7    8 1
    21    7   10 1
    22    7   45 1
    23    8    9 1
    24    8   46 1
    25    8   47 1
    26    9   48 1
    27    9   49 1
    28   10   11 am
    29   10   50 1
    30   11   12 2
    31   11   13 1
    32   13   18 ar
    33   13   14 ar
    34   14   15 ar
    35   14   51 1
    36   15   16 ar
    37   15   52 1
    38   16   32 1
    39   16   17 ar
    40   17   18 ar
    41   17   19 1
    42   18   53 1
    43   19   24 ar
    44   19   20 ar
    45   20   21 ar
    46   20   32 1
    47   21   22 ar
    48   21   26 1
    49   22   23 ar
    50   23   24 ar
    51   23   25 1
    52   25   54 1
    53   25   55 1
    54   26   31 ar
    55   26   27 ar
    56   27   28 ar
    57   27   56 1
    58   28   29 ar
    59   28   57 1
    60   29   30 ar
    61   29   58 1
    62   30   31 ar
    63   30   59 1
    64   31   60 1
    65   32   33 2
