@<TRIPOS>MOLECULE
CHEMBL611917
   58    62     0     0     0
SMALL
USER_CHARGES

@<TRIPOS>ATOM
      1 C1         -0.0187    1.5258    0.0104 C.3       1 <0>        -0.1452
      2 C2          0.0021   -0.0041    0.0020 C.3       1 <0>        -0.0770
      3 C3          0.7995   -0.6105   -1.1703 C.3       1 <0>        -0.1082
      4 C4          1.9785    0.2920   -1.5568 C.3       1 <0>        -0.0797
      5 C5          2.7802    0.6391   -0.3254 C.2       1 <0>        -0.0922
      6 C6          2.3631    0.2116    0.8693 C.2       1 <0>        -0.0858
      7 C7          1.0901   -0.6171    0.9030 C.3       1 <0>        -0.0614
      8 C8          1.1914   -1.7197   -0.1797 C.3       1 <0>        -0.1311
      9 C9          3.1024    0.5282    2.0960 C.2       1 <0>         0.1027
     10 N1          4.1891    1.2393    2.0349 N.2       1 <0>        -0.2103
     11 N2          4.8952    1.5417    3.2065 N.pl3     1 <0>        -0.5415
     12 C10         6.0531    2.2995    3.1413 C.ar      1 <0>         0.6501
     13 N3          6.4703    2.7321    1.9576 N.ar      1 <0>        -0.5917
     14 C11         7.5737    3.4619    1.8435 C.ar      1 <0>         0.5384
     15 C12         8.2989    3.7713    3.0079 C.ar      1 <0>        -0.1445
     16 C13         7.8194    3.2919    4.2382 C.ar      1 <0>         0.3563
     17 N4          6.7025    2.5718    4.2618 N.ar      1 <0>        -0.5986
     18 N5          8.7047    3.7349    5.1882 N.pl3     1 <0>        -0.4732
     19 C14         9.6718    4.4497    4.5439 C.2       1 <0>         0.2495
     20 N6          9.4317    4.4696    3.2654 N.2       1 <0>        -0.4506
     21 C15         8.6257    3.4865    6.6298 C.3       1 <0>         0.3154
     22 C16         9.3391    2.1637    6.9874 C.3       1 <0>         0.0792
     23 H1         10.0869    1.9172    6.2337 H         1 <0>         0.0861
     24 C17        10.0154    2.4571    8.3453 C.3       1 <0>         0.0470
     25 H2         11.0975    2.3557    8.2629 H         1 <0>         0.0870
     26 C18         9.6305    3.9224    8.6475 C.3       1 <0>         0.0505
     27 H3          8.7444    3.9590    9.2812 H         1 <0>         0.0992
     28 O1          9.3493    4.5039    7.3557 O.3       1 <0>        -0.3462
     29 C19        10.7956    4.6512    9.3200 C.3       1 <0>         0.0822
     30 O2         10.3816    5.9663    9.6957 O.3       1 <0>        -0.5634
     31 O3          9.5075    1.5845    9.3565 O.3       1 <0>        -0.5394
     32 O4          8.3910    1.1024    7.1161 O.3       1 <0>        -0.5268
     33 N7          8.0010    3.9081    0.6054 N.pl3     1 <0>        -0.8140
     34 C20        -1.3837   -0.6225    0.1971 C.3       1 <0>        -0.1285
     35 H4          1.0039    1.9031    0.0027 H         1 <0>         0.0677
     36 H5         -0.5459    1.8868   -0.8726 H         1 <0>         0.0540
     37 H6         -0.5289    1.8773    0.9072 H         1 <0>         0.0524
     38 H7          0.1935   -0.9436   -2.0129 H         1 <0>         0.0855
     39 H8          2.6167   -0.2305   -2.2694 H         1 <0>         0.0814
     40 H9          1.6004    1.2069   -2.0130 H         1 <0>         0.0851
     41 H10         3.6823    1.2269   -0.4097 H         1 <0>         0.1304
     42 H11         0.7711   -0.9281    1.8977 H         1 <0>         0.0908
     43 H12         0.4436   -2.5064   -0.0797 H         1 <0>         0.0874
     44 H13         2.2009   -2.1044   -0.3248 H         1 <0>         0.0703
     45 H14         2.7441    0.1705    3.0500 H         1 <0>         0.1151
     46 H15         4.5734    1.2204    4.0633 H         1 <0>         0.4032
     47 H16        10.5121    4.9287    5.0243 H         1 <0>         0.2211
     48 H17         7.5850    3.4576    6.9527 H         1 <0>         0.1212
     49 H18        11.1048    4.1001   10.2081 H         1 <0>         0.0665
     50 H19        11.6322    4.7185    8.6245 H         1 <0>         0.0613
     51 H20        11.0716    6.4872   10.1289 H         1 <0>         0.3866
     52 H21         9.8980    1.7252   10.2299 H         1 <0>         0.3870
     53 H22         8.7848    0.2481    7.3401 H         1 <0>         0.3899
     54 H23         7.4930    3.6883   -0.1912 H         1 <0>         0.4108
     55 H24         8.8086    4.4406    0.5340 H         1 <0>         0.4201
     56 H25        -1.9913   -0.4394   -0.6891 H         1 <0>         0.0597
     57 H26        -1.2835   -1.6966    0.3533 H         1 <0>         0.0594
     58 H27        -1.8635   -0.1722    1.0660 H         1 <0>         0.0588
@<TRIPOS>BOND
     1    1    2 1
     2    1   35 1
     3    1   36 1
     4    1   37 1
     5    2    7 1
     6    2    3 1
     7    2   34 1
     8    3    8 1
     9    3    4 1
    10    3   38 1
    11    4    5 1
    12    4   39 1
    13    4   40 1
    14    5    6 2
    15    5   41 1
    16    6    7 1
    17    6    9 1
    18    7    8 1
    19    7   42 1
    20    8   43 1
    21    8   44 1
    22    9   10 2
    23    9   45 1
    24   10   11 1
    25   11   12 1
    26   11   46 1
    27   12   17 ar
    28   12   13 ar
    29   13   14 ar
    30   14   15 ar
    31   14   33 1
    32   15   20 1
    33   15   16 ar
    34   16   17 ar
    35   16   18 1
    36   18   19 1
    37   18   21 1
    38   19   20 2
    39   19   47 1
    40   21   28 1
    41   21   22 1
    42   21   48 1
    43   22   23 1
    44   22   24 1
    45   22   32 1
    46   24   25 1
    47   24   26 1
    48   24   31 1
    49   26   27 1
    50   26   28 1
    51   26   29 1
    52   29   30 1
    53   29   49 1
    54   29   50 1
    55   30   51 1
    56   31   52 1
    57   32   53 1
    58   33   54 1
    59   33   55 1
    60   34   56 1
    61   34   57 1
    62   34   58 1
