@<TRIPOS>MOLECULE
CHEMBL603815
   56    59     0     0     0
SMALL
USER_CHARGES

@<TRIPOS>ATOM
      1 C1         -0.0164    1.3592    0.0095 C.2       1 <0>         0.2740
      2 N1          1.2006    1.8207    0.0004 N.2       1 <0>        -0.4572
      3 C2          2.0754    0.7870   -0.0135 C.ar      1 <0>        -0.0933
      4 C3          3.4785    0.6816   -0.0275 C.ar      1 <0>         0.5202
      5 N2          4.0243   -0.5275   -0.0392 N.ar      1 <0>        -0.5872
      6 C4          3.2686   -1.6227   -0.0379 C.ar      1 <0>         0.5456
      7 N3          1.9437   -1.5671   -0.0254 N.ar      1 <0>        -0.4970
      8 C5          1.3171   -0.3971   -0.0126 C.ar      1 <0>         0.3226
      9 N4          0.0021   -0.0041    0.0020 N.pl3     1 <0>        -0.4666
     10 C6         -1.1668   -0.8871    0.0089 C.3       1 <0>         0.3115
     11 C7         -1.5540   -1.2556    1.4583 C.3       1 <0>         0.0787
     12 H1         -1.1953   -0.4970    2.1540 H         1 <0>         0.0864
     13 C8         -3.0987   -1.2848    1.4384 C.3       1 <0>         0.0474
     14 H2         -3.5036   -0.5406    2.1242 H         1 <0>         0.0877
     15 C9         -3.4621   -0.9305   -0.0207 C.3       1 <0>         0.0504
     16 H3         -3.6135   -1.8381   -0.6051 H         1 <0>         0.1010
     17 O1         -2.3213   -0.1972   -0.5174 O.3       1 <0>        -0.3464
     18 C10        -4.7178   -0.0573   -0.0599 C.3       1 <0>         0.0822
     19 O2         -5.1032    0.1621   -1.4183 O.3       1 <0>        -0.5635
     20 O3         -3.5792   -2.5878    1.7747 O.3       1 <0>        -0.5383
     21 O4         -1.0307   -2.5392    1.8055 O.3       1 <0>        -0.5247
     22 N5          3.8791   -2.8476   -0.0503 N.2       1 <0>        -0.2462
     23 N6          5.1666   -2.9264   -0.0630 N.2       1 <0>         0.1110
     24 N7          5.7915   -4.1803   -0.0757 N.am      1 <0>        -0.5534
     25 C11         7.1367   -4.2626   -0.0890 C.2       1 <0>         0.7352
     26 O5          7.6789   -5.3504   -0.1000 O.2       1 <0>        -0.5574
     27 N8          7.8807   -3.1388   -0.0901 N.am      1 <0>        -0.7206
     28 C12         9.3429   -3.2284   -0.1045 C.3       1 <0>         0.1574
     29 C13         9.8579   -3.3927    1.3268 C.3       1 <0>        -0.1316
     30 C14        11.3850   -3.4862    1.3117 C.3       1 <0>        -0.1173
     31 C15        11.9681   -2.2092    0.7033 C.3       1 <0>        -0.1231
     32 C16        11.4531   -2.0449   -0.7280 C.3       1 <0>        -0.1158
     33 C17         9.9260   -1.9514   -0.7129 C.3       1 <0>        -0.1267
     34 N9          4.2722    1.8152   -0.0294 N.pl3     1 <0>        -0.8125
     35 H4         -0.9093    1.9666    0.0254 H         1 <0>         0.2277
     36 H5         -0.9651   -1.7870   -0.5722 H         1 <0>         0.1267
     37 H6         -5.5265   -0.5599    0.4706 H         1 <0>         0.0673
     38 H7         -4.5097    0.9000    0.4179 H         1 <0>         0.0612
     39 H8         -5.8941    0.7092   -1.5193 H         1 <0>         0.3870
     40 H9         -4.5433   -2.6629    1.7773 H         1 <0>         0.3877
     41 H10        -1.2440   -2.8205    2.7057 H         1 <0>         0.3914
     42 H11         5.2561   -4.9891   -0.0750 H         1 <0>         0.4141
     43 H12         7.4480   -2.2707   -0.0813 H         1 <0>         0.4100
     44 H13         9.6484   -4.0876   -0.7015 H         1 <0>         0.0921
     45 H14         9.5524   -2.5335    1.9238 H         1 <0>         0.0652
     46 H15         9.4425   -4.3025    1.7602 H         1 <0>         0.0687
     47 H16        11.7519   -3.6033    2.3314 H         1 <0>         0.0657
     48 H17        11.6905   -4.3455    0.7147 H         1 <0>         0.0655
     49 H18        11.6626   -1.3500    1.3003 H         1 <0>         0.0631
     50 H19        13.0561   -2.2759    0.6926 H         1 <0>         0.0645
     51 H20        11.8685   -1.1351   -1.1614 H         1 <0>         0.0685
     52 H21        11.7586   -2.9041   -1.3250 H         1 <0>         0.0662
     53 H22         9.5591   -1.8343   -1.7326 H         1 <0>         0.0707
     54 H23         9.6205   -1.0921   -0.1159 H         1 <0>         0.0704
     55 H24         3.8624    2.6943   -0.0211 H         1 <0>         0.4214
     56 H25         5.2385    1.7307   -0.0391 H         1 <0>         0.4125
@<TRIPOS>BOND
     1    1    9 1
     2    1    2 2
     3    1   35 1
     4    2    3 1
     5    3    8 ar
     6    3    4 ar
     7    4    5 ar
     8    4   34 1
     9    5    6 ar
    10    6    7 ar
    11    6   22 1
    12    7    8 ar
    13    8    9 1
    14    9   10 1
    15   10   17 1
    16   10   11 1
    17   10   36 1
    18   11   12 1
    19   11   13 1
    20   11   21 1
    21   13   14 1
    22   13   15 1
    23   13   20 1
    24   15   16 1
    25   15   17 1
    26   15   18 1
    27   18   19 1
    28   18   37 1
    29   18   38 1
    30   19   39 1
    31   20   40 1
    32   21   41 1
    33   22   23 2
    34   23   24 1
    35   24   25 am
    36   24   42 1
    37   25   26 2
    38   25   27 am
    39   27   28 1
    40   27   43 1
    41   28   33 1
    42   28   29 1
    43   28   44 1
    44   29   30 1
    45   29   45 1
    46   29   46 1
    47   30   31 1
    48   30   47 1
    49   30   48 1
    50   31   32 1
    51   31   49 1
    52   31   50 1
    53   32   33 1
    54   32   51 1
    55   32   52 1
    56   33   53 1
    57   33   54 1
    58   34   55 1
    59   34   56 1
