@<TRIPOS>MOLECULE
CHEMBL483242
   54    56     0     0     0
SMALL
USER_CHARGES

@<TRIPOS>ATOM
      1 C1         -0.0187    1.5258    0.0104 C.3       1 <0>        -0.1689
      2 C2          0.0021   -0.0041    0.0020 C.3       1 <0>         0.1363
      3 N1          0.7106   -0.4894    1.1889 N.am      1 <0>        -0.5941
      4 C3          2.1647   -0.7080    1.1364 C.3       1 <0>         0.2820
      5 C4          2.8238   -1.2140    2.4466 C.3       1 <0>         0.0888
      6 C5          1.8839   -1.4316    3.6146 C.2       1 <0>         0.5237
      7 O1          2.3071   -1.8314    4.6780 O.2       1 <0>        -0.4832
      8 N2          0.5742   -1.1747    3.4553 N.am      1 <0>        -0.5599
      9 C6          0.0328   -0.7275    2.3208 C.2       1 <0>         0.7025
     10 O2         -1.1656   -0.5254    2.3113 O.2       1 <0>        -0.5559
     11 C7         -0.3132   -1.3944    4.6001 C.3       1 <0>         0.1013
     12 C8         -0.4072   -0.1102    5.4264 C.3       1 <0>        -0.1631
     13 N3          3.3408   -2.5394    2.0726 N.pl3     1 <0>        -0.6294
     14 C9          3.0372   -2.7691    0.7528 C.2       1 <0>         0.4305
     15 N4          2.3920   -1.8004    0.1820 N.2       1 <0>        -0.5762
     16 C10         3.4111   -4.0024    0.0504 C.2       1 <0>        -0.1454
     17 C11         3.0829   -4.1652   -1.2452 C.2       1 <0>        -0.0100
     18 C12         3.4578   -5.4018   -1.9494 C.ar      1 <0>        -0.0765
     19 C13         4.1501   -6.4116   -1.2732 C.ar      1 <0>        -0.0939
     20 C14         4.4996   -7.5688   -1.9347 C.ar      1 <0>        -0.1764
     21 C15         4.1669   -7.7355   -3.2720 C.ar      1 <0>         0.1147
     22 C16         3.4771   -6.7336   -3.9527 C.ar      1 <0>         0.0981
     23 C17         3.1178   -5.5729   -3.2954 C.ar      1 <0>        -0.1470
     24 O3          3.1535   -6.9009   -5.2630 O.3       1 <0>        -0.3054
     25 C18         2.4464   -5.8336   -5.8979 C.3       1 <0>         0.0241
     26 O4          4.5149   -8.8782   -3.9194 O.3       1 <0>        -0.3034
     27 C19         5.2208   -9.8635   -3.1623 C.3       1 <0>         0.0241
     28 C20         4.0591   -3.4591    2.9583 C.3       1 <0>         0.1083
     29 H1          1.0039    1.9031    0.0027 H         1 <0>         0.0550
     30 H2         -0.5459    1.8868   -0.8726 H         1 <0>         0.0716
     31 H3         -0.5289    1.8773    0.9072 H         1 <0>         0.0589
     32 H4         -1.0205   -0.3814    0.0098 H         1 <0>         0.0885
     33 H5          0.5123   -0.3556   -0.8948 H         1 <0>         0.0932
     34 H6          2.6616    0.1968    0.7865 H         1 <0>         0.1235
     35 H7          3.6367   -0.5493    2.7390 H         1 <0>         0.1353
     36 H8         -1.3054   -1.6702    4.2430 H         1 <0>         0.1003
     37 H9          0.0858   -2.1971    5.2203 H         1 <0>         0.0940
     38 H10         0.5850    0.1656    5.7835 H         1 <0>         0.0574
     39 H11        -0.8062    0.6925    4.8062 H         1 <0>         0.0624
     40 H12        -1.0674   -0.2737    6.2781 H         1 <0>         0.0763
     41 H13         3.9495   -4.7793    0.5727 H         1 <0>         0.1352
     42 H14         2.5445   -3.3883   -1.7676 H         1 <0>         0.1393
     43 H15         4.4109   -6.2843   -0.2329 H         1 <0>         0.1317
     44 H16         5.0341   -8.3479   -1.4115 H         1 <0>         0.1397
     45 H17         2.5798   -4.7976   -3.8206 H         1 <0>         0.1418
     46 H18         1.5011   -5.6664   -5.3818 H         1 <0>         0.0567
     47 H19         3.0477   -4.9253   -5.8584 H         1 <0>         0.0568
     48 H20         2.2513   -6.0952   -6.9379 H         1 <0>         0.1028
     49 H21         6.1551   -9.4388   -2.7950 H         1 <0>         0.0571
     50 H22         4.6088  -10.1801   -2.3178 H         1 <0>         0.0570
     51 H23         5.4371  -10.7230   -3.7968 H         1 <0>         0.1031
     52 H24         3.3454   -4.1141    3.4580 H         1 <0>         0.0569
     53 H25         4.7544   -4.0597    2.3717 H         1 <0>         0.0793
     54 H26         4.6119   -2.8879    3.7040 H         1 <0>         0.0805
@<TRIPOS>BOND
     1    1    2 1
     2    1   29 1
     3    1   30 1
     4    1   31 1
     5    2    3 1
     6    2   32 1
     7    2   33 1
     8    3    9 am
     9    3    4 1
    10    4   15 1
    11    4    5 1
    12    4   34 1
    13    5    6 1
    14    5   13 1
    15    5   35 1
    16    6    7 2
    17    6    8 am
    18    8    9 am
    19    8   11 1
    20    9   10 2
    21   11   12 1
    22   11   36 1
    23   11   37 1
    24   12   38 1
    25   12   39 1
    26   12   40 1
    27   13   14 1
    28   13   28 1
    29   14   15 2
    30   14   16 1
    31   16   17 2
    32   16   41 1
    33   17   18 1
    34   17   42 1
    35   18   23 ar
    36   18   19 ar
    37   19   20 ar
    38   19   43 1
    39   20   21 ar
    40   20   44 1
    41   21   22 ar
    42   21   26 1
    43   22   23 ar
    44   22   24 1
    45   23   45 1
    46   24   25 1
    47   25   46 1
    48   25   47 1
    49   25   48 1
    50   26   27 1
    51   27   49 1
    52   27   50 1
    53   27   51 1
    54   28   52 1
    55   28   53 1
    56   28   54 1
