@<TRIPOS>MOLECULE
CHEMBL611586
   58    61     0     0     0
SMALL
USER_CHARGES

@<TRIPOS>ATOM
      1 C1         -0.0187    1.5258    0.0104 C.3       1 <0>        -0.1679
      2 C2          0.0021   -0.0041    0.0020 C.3       1 <0>         0.1136
      3 N1         -1.3723   -0.5112    0.0124 N.am      1 <0>        -0.7272
      4 C3         -1.6006   -1.8394    0.0075 C.2       1 <0>         0.5160
      5 O1         -0.6682   -2.6149   -0.0056 O.2       1 <0>        -0.5033
      6 C4         -3.0144   -2.3611    0.0182 C.3       1 <0>         0.0317
      7 H1         -3.5805   -1.9494   -0.8174 H         1 <0>         0.1221
      8 C5         -3.7084   -2.0293    1.3638 C.3       1 <0>         0.0509
      9 H2         -3.0081   -2.1165    2.1945 H         1 <0>         0.0954
     10 C6         -4.8001   -3.1239    1.4442 C.3       1 <0>         0.0825
     11 H3         -4.8843   -3.5048    2.4620 H         1 <0>         0.0906
     12 C7         -4.2978   -4.2288    0.4946 C.3       1 <0>         0.3139
     13 O2         -3.0242   -3.8042   -0.0230 O.3       1 <0>        -0.3263
     14 N2         -4.1443   -5.4862    1.2305 N.pl3     1 <0>        -0.4745
     15 C8         -2.9959   -5.9538    1.7993 C.2       1 <0>         0.2700
     16 N3         -3.2186   -7.1005    2.3728 N.2       1 <0>        -0.4559
     17 C9         -4.5197   -7.4418    2.2097 C.ar      1 <0>        -0.1040
     18 C10        -5.1308   -6.4075    1.4794 C.ar      1 <0>         0.3156
     19 N4         -6.4225   -6.4963    1.1866 N.ar      1 <0>        -0.5353
     20 C11        -7.1333   -7.5476    1.5799 C.ar      1 <0>         0.5135
     21 N5         -6.5938   -8.5475    2.2758 N.ar      1 <0>        -0.5717
     22 C12        -5.3078   -8.5390    2.6023 C.ar      1 <0>         0.5162
     23 N6         -4.7564   -9.5810    3.3271 N.pl3     1 <0>        -0.8136
     24 C13        -8.5244   -7.6077    1.2455 C.1       1 <0>        -0.1265
     25 C14        -9.6649   -7.6571    0.9713 C.1       1 <0>         0.0680
     26 N7        -11.0540   -7.7171    0.6373 N.3       1 <0>        -0.5454
     27 C15       -11.6673   -8.9474    1.1554 C.3       1 <0>         0.0585
     28 C16       -13.1500   -8.9756    0.7791 C.3       1 <0>        -0.0794
     29 C17       -13.7792  -10.2377    1.3106 C.ar      1 <0>        -0.0953
     30 C18       -13.7925  -11.3822    0.5353 C.ar      1 <0>        -0.0829
     31 C19       -14.3688  -12.5403    1.0218 C.ar      1 <0>        -0.1514
     32 C20       -14.9329  -12.5539    2.2862 C.ar      1 <0>         0.0972
     33 C21       -14.9189  -11.4070    3.0618 C.ar      1 <0>        -0.1518
     34 C22       -14.3374  -10.2516    2.5753 C.ar      1 <0>        -0.0852
     35 F1        -15.4969  -13.6854    2.7627 F         1 <0>        -0.1393
     36 O3         -6.0569   -2.6106    0.9981 O.3       1 <0>        -0.5314
     37 O4         -4.2936   -0.7261    1.3280 O.3       1 <0>        -0.5361
     38 H4          1.0039    1.9031    0.0027 H         1 <0>         0.0793
     39 H5         -0.5459    1.8868   -0.8726 H         1 <0>         0.0645
     40 H6         -0.5289    1.8773    0.9072 H         1 <0>         0.0637
     41 H7          0.5123   -0.3556   -0.8948 H         1 <0>         0.0731
     42 H8          0.5293   -0.3651    0.8851 H         1 <0>         0.0729
     43 H9         -2.1181    0.1091    0.0229 H         1 <0>         0.3979
     44 H10        -5.0029   -4.3610   -0.3260 H         1 <0>         0.1319
     45 H11        -2.0424   -5.4471    1.7770 H         1 <0>         0.2268
     46 H12        -3.8175   -9.5596    3.5696 H         1 <0>         0.4213
     47 H13        -5.3089  -10.3328    3.5926 H         1 <0>         0.4125
     48 H14       -11.5423   -6.9005    0.9732 H         1 <0>         0.3706
     49 H15       -11.1661   -9.8132    0.7228 H         1 <0>         0.0888
     50 H16       -11.5672   -8.9742    2.2405 H         1 <0>         0.0526
     51 H17       -13.6512   -8.1098    1.2117 H         1 <0>         0.0801
     52 H18       -13.2501   -8.9488   -0.3059 H         1 <0>         0.0903
     53 H19       -13.3528  -11.3712   -0.4510 H         1 <0>         0.1352
     54 H20       -14.3794  -13.4342    0.4159 H         1 <0>         0.1367
     55 H21       -15.3589  -11.4164    4.0481 H         1 <0>         0.1363
     56 H22       -14.3224   -9.3581    3.1818 H         1 <0>         0.1330
     57 H23        -6.3912   -1.8738    1.5276 H         1 <0>         0.3970
     58 H24        -3.6563   -0.0124    1.1882 H         1 <0>         0.3843
@<TRIPOS>BOND
     1    1    2 1
     2    1   38 1
     3    1   39 1
     4    1   40 1
     5    2    3 1
     6    2   41 1
     7    2   42 1
     8    3    4 am
     9    3   43 1
    10    4    5 2
    11    4    6 1
    12    6    7 1
    13    6   13 1
    14    6    8 1
    15    8    9 1
    16    8   10 1
    17    8   37 1
    18   10   11 1
    19   10   12 1
    20   10   36 1
    21   12   13 1
    22   12   14 1
    23   12   44 1
    24   14   18 1
    25   14   15 1
    26   15   16 2
    27   15   45 1
    28   16   17 1
    29   17   22 ar
    30   17   18 ar
    31   18   19 ar
    32   19   20 ar
    33   20   21 ar
    34   20   24 1
    35   21   22 ar
    36   22   23 1
    37   23   46 1
    38   23   47 1
    39   24   25 3
    40   25   26 1
    41   26   27 1
    42   26   48 1
    43   27   28 1
    44   27   49 1
    45   27   50 1
    46   28   29 1
    47   28   51 1
    48   28   52 1
    49   29   34 ar
    50   29   30 ar
    51   30   31 ar
    52   30   53 1
    53   31   32 ar
    54   31   54 1
    55   32   33 ar
    56   32   35 1
    57   33   34 ar
    58   33   55 1
    59   34   56 1
    60   36   57 1
    61   37   58 1
