@<TRIPOS>MOLECULE
CHEMBL466021
   62    65     0     0     0
SMALL
USER_CHARGES

@<TRIPOS>ATOM
      1 C1         -0.0379    1.5919   -0.0215 C.3       1 <0>        -0.1488
      2 C2         -0.0109    0.0621   -0.0203 C.3       1 <0>        -0.1411
      3 C3         -1.4441   -0.4732   -0.0059 C.3       1 <0>         0.1190
      4 N1         -1.4183   -1.9380   -0.0047 N.am      1 <0>        -0.5194
      5 C4         -1.4120   -2.6334   -1.2069 C.2       1 <0>         0.1505
      6 C5         -1.4250   -2.2427   -2.5487 C.2       1 <0>        -0.1933
      7 C6         -1.4087   -3.3742   -3.3143 C.2       1 <0>         0.1462
      8 N2         -1.3857   -4.4645   -2.4903 N.pl3     1 <0>        -0.5016
      9 H1         -1.3704   -5.3911   -2.7769 H         1 <0>         0.4299
     10 C7         -1.3874   -4.0255   -1.1832 C.2       1 <0>        -0.1020
     11 C8         -1.3708   -4.6844    0.0671 C.2       1 <0>         0.5866
     12 O1         -1.3488   -5.9012    0.1207 O.2       1 <0>        -0.5161
     13 N3         -1.3791   -3.9534    1.1999 N.am      1 <0>        -0.5484
     14 C9         -1.3952   -2.6101    1.1620 C.2       1 <0>         0.7005
     15 O2         -1.3960   -1.9869    2.2061 O.2       1 <0>        -0.5375
     16 C10        -1.3619   -4.6359    2.4961 C.3       1 <0>         0.1132
     17 C11         0.0864   -4.8481    2.9415 C.3       1 <0>        -0.1371
     18 C12         0.1044   -5.5608    4.2952 C.3       1 <0>        -0.1473
     19 C13        -1.4152   -3.4129   -4.7922 C.ar      1 <0>        -0.0209
     20 C14        -1.4341   -2.2247   -5.5244 C.ar      1 <0>        -0.0915
     21 C15        -1.4396   -2.2678   -6.9033 C.ar      1 <0>        -0.0851
     22 C16        -1.4265   -3.4853   -7.5605 C.ar      1 <0>        -0.0899
     23 C17        -1.4082   -4.6668   -6.8406 C.ar      1 <0>        -0.0840
     24 C18        -1.3967   -4.6376   -5.4614 C.ar      1 <0>        -0.1127
     25 C19        -1.4326   -3.5247   -9.0669 C.3       1 <0>         0.1253
     26 O3         -0.0874   -3.5195   -9.5491 O.3       1 <0>        -0.3553
     27 C20         0.0835   -3.5521  -10.8842 C.2       1 <0>         0.6499
     28 O4         -0.8830   -3.5841  -11.6199 O.2       1 <0>        -0.5503
     29 N4          1.3267   -3.5492  -11.4047 N.am      1 <0>        -0.6496
     30 C21         1.5073   -3.6805  -12.7863 C.ar      1 <0>         0.1513
     31 C22         2.5987   -4.3816  -13.2818 C.ar      1 <0>        -0.1397
     32 C23         2.7741   -4.5095  -14.6458 C.ar      1 <0>        -0.1009
     33 C24         1.8642   -3.9403  -15.5177 C.ar      1 <0>        -0.1300
     34 C25         0.7763   -3.2415  -15.0274 C.ar      1 <0>        -0.1013
     35 C26         0.5922   -3.1150  -13.6645 C.ar      1 <0>        -0.1190
     36 H2          0.9832    1.9733   -0.0317 H         1 <0>         0.0611
     37 H3         -0.5666    1.9453   -0.9067 H         1 <0>         0.0579
     38 H4         -0.5494    1.9470    0.8732 H         1 <0>         0.0594
     39 H5          0.5006   -0.2929   -0.9149 H         1 <0>         0.0681
     40 H6          0.5178   -0.2913    0.8649 H         1 <0>         0.0696
     41 H7         -1.9556   -0.1181    0.8888 H         1 <0>         0.1001
     42 H8         -1.9729   -0.1198   -0.8911 H         1 <0>         0.0929
     43 H9         -1.4446   -1.2270   -2.9152 H         1 <0>         0.1596
     44 H10        -1.8835   -4.0268    3.2343 H         1 <0>         0.1020
     45 H11        -1.8592   -5.6015    2.4049 H         1 <0>         0.1003
     46 H12         0.6081   -5.4571    2.2033 H         1 <0>         0.0666
     47 H13         0.5837   -3.8824    3.0327 H         1 <0>         0.0686
     48 H14        -0.4173   -4.9518    5.0335 H         1 <0>         0.0595
     49 H15        -0.3929   -6.5265    4.2041 H         1 <0>         0.0587
     50 H16         1.1362   -5.7120    4.6126 H         1 <0>         0.0611
     51 H17        -1.4447   -1.2737   -5.0126 H         1 <0>         0.1374
     52 H18        -1.4546   -1.3492   -7.4710 H         1 <0>         0.1344
     53 H19        -1.3987   -5.6138   -7.3596 H         1 <0>         0.1321
     54 H20        -1.3778   -5.5605   -4.9007 H         1 <0>         0.1245
     55 H21        -1.9361   -4.4306   -9.4046 H         1 <0>         0.0827
     56 H22        -1.9597   -2.6514   -9.4511 H         1 <0>         0.0837
     57 H23         2.0964   -3.4560  -10.8217 H         1 <0>         0.4186
     58 H24         3.3099   -4.8261  -12.6014 H         1 <0>         0.1279
     59 H25         3.6230   -5.0543  -15.0318 H         1 <0>         0.1291
     60 H26         2.0037   -4.0413  -16.5839 H         1 <0>         0.1256
     61 H27         0.0676   -2.7978  -15.7110 H         1 <0>         0.1280
     62 H28        -0.2601   -2.5730  -13.2821 H         1 <0>         0.1407
@<TRIPOS>BOND
     1    1    2 1
     2    1   36 1
     3    1   37 1
     4    1   38 1
     5    2    3 1
     6    2   39 1
     7    2   40 1
     8    3    4 1
     9    3   41 1
    10    3   42 1
    11    4   14 am
    12    4    5 1
    13    5   10 2
    14    5    6 1
    15    6    7 2
    16    6   43 1
    17    7    8 1
    18    7   19 1
    19    8    9 1
    20    8   10 1
    21   10   11 1
    22   11   12 2
    23   11   13 am
    24   13   14 am
    25   13   16 1
    26   14   15 2
    27   16   17 1
    28   16   44 1
    29   16   45 1
    30   17   18 1
    31   17   46 1
    32   17   47 1
    33   18   48 1
    34   18   49 1
    35   18   50 1
    36   19   24 ar
    37   19   20 ar
    38   20   21 ar
    39   20   51 1
    40   21   22 ar
    41   21   52 1
    42   22   23 ar
    43   22   25 1
    44   23   24 ar
    45   23   53 1
    46   24   54 1
    47   25   26 1
    48   25   55 1
    49   25   56 1
    50   26   27 1
    51   27   28 2
    52   27   29 am
    53   29   30 1
    54   29   57 1
    55   30   35 ar
    56   30   31 ar
    57   31   32 ar
    58   31   58 1
    59   32   33 ar
    60   32   59 1
    61   33   34 ar
    62   33   60 1
    63   34   35 ar
    64   34   61 1
    65   35   62 1
