@<TRIPOS>MOLECULE
CHEMBL1171164
   58    61     0     0     0
SMALL
USER_CHARGES

@<TRIPOS>ATOM
      1 C1         -0.0143    1.5242    0.0036 C.3       1 <0>        -0.1725
      2 C2          0.0016   -0.0057    0.0018 C.3       1 <0>         0.1104
      3 N1          0.7109   -0.4881    1.1893 N.am      1 <0>        -0.5717
      4 C3          0.0260   -0.6340    2.4041 C.ar      1 <0>         0.1440
      5 C4         -0.5888   -1.8381    2.7194 C.ar      1 <0>        -0.0518
      6 C5         -1.2606   -1.9609    3.9267 C.ar      1 <0>        -0.2006
      7 C6         -1.3321   -0.9171    4.8183 C.ar      1 <0>         0.1933
      8 C7         -0.7162    0.3278    4.5293 C.ar      1 <0>         0.0872
      9 C8         -0.0366    0.4156    3.2959 C.ar      1 <0>        -0.1173
     10 S1          0.5825    2.0807    3.3219 S.3       1 <0>         0.0355
     11 C9         -0.0716    2.5382    4.9210 C.2       1 <0>         0.3643
     12 N2         -0.6941    1.4437    5.2914 N.2       1 <0>        -0.4853
     13 N3          0.0390    3.7448    5.5925 N.am      1 <0>        -0.6141
     14 C10        -0.5309    3.8963    6.8044 C.2       1 <0>         0.5937
     15 O1         -1.1422    2.9739    7.3084 O.2       1 <0>        -0.4720
     16 C11        -0.4132    5.1800    7.5188 C.2       1 <0>        -0.2958
     17 C12         0.2563    6.3369    7.0604 C.2       1 <0>         0.0825
     18 N4          0.1364    7.2610    7.9732 N.2       1 <0>        -0.2799
     19 N5         -0.6044    6.7475    9.0436 N.pl3     1 <0>        -0.3550
     20 C13        -0.9414    5.4795    8.7589 C.2       1 <0>         0.1433
     21 C14        -0.9571    7.4730   10.2665 C.3       1 <0>         0.1713
     22 C15         0.2947    8.0116   10.9098 C.ar      1 <0>        -0.1180
     23 C16         0.9825    7.2453   11.8324 C.ar      1 <0>        -0.0653
     24 C17         2.1306    7.7394   12.4224 C.ar      1 <0>        -0.1214
     25 C18         2.5915    8.9997   12.0896 C.ar      1 <0>        -0.0585
     26 C19         1.9043    9.7654   11.1667 C.ar      1 <0>        -0.1845
     27 C20         0.7583    9.2695   10.5733 C.ar      1 <0>        -0.0310
     28 C21         2.4064   11.1393   10.8044 C.3       1 <0>         0.5087
     29 F1          3.5727   11.4150   11.5262 F         1 <0>        -0.1761
     30 F2          2.6837   11.1881    9.4340 F         1 <0>        -0.1734
     31 F3          1.4290   12.0903   11.1165 F         1 <0>        -0.1754
     32 O2         -2.0014   -1.0795    5.9911 O.3       1 <0>        -0.2907
     33 C22        -2.6008   -2.3556    6.2247 C.3       1 <0>         0.0197
     34 C23         2.0219   -0.7917    1.1142 C.2       1 <0>         0.5217
     35 O3          2.6363   -0.5780    0.0904 O.2       1 <0>        -0.5309
     36 C24         2.7245   -1.3968    2.3022 C.3       1 <0>        -0.1777
     37 H1          1.0095    1.8981   -0.0079 H         1 <0>         0.0611
     38 H2         -0.5421    1.8831   -0.8800 H         1 <0>         0.0704
     39 H3         -0.5215    1.8812    0.8998 H         1 <0>         0.0589
     40 H4         -1.0222   -0.3797    0.0132 H         1 <0>         0.0786
     41 H5          0.5088   -0.3628   -0.8945 H         1 <0>         0.0920
     42 H6         -0.5448   -2.6700    2.0321 H         1 <0>         0.1470
     43 H7         -1.7388   -2.8978    4.1717 H         1 <0>         0.1475
     44 H8          0.5267    4.4807    5.1905 H         1 <0>         0.4276
     45 H9          0.7764    6.4382    6.1193 H         1 <0>         0.1912
     46 H10        -1.5177    4.8150    9.3856 H         1 <0>         0.1929
     47 H11        -1.6232    8.2996   10.0193 H         1 <0>         0.1060
     48 H12        -1.4590    6.7965   10.9583 H         1 <0>         0.1174
     49 H13         0.6225    6.2608   12.0923 H         1 <0>         0.1342
     50 H14         2.6675    7.1411   13.1436 H         1 <0>         0.1399
     51 H15         3.4882    9.3860   12.5512 H         1 <0>         0.1421
     52 H16         0.2234    9.8663    9.8493 H         1 <0>         0.1377
     53 H17        -1.8295   -3.1258    6.2185 H         1 <0>         0.0602
     54 H18        -3.1012   -2.3502    7.1930 H         1 <0>         0.1052
     55 H19        -3.3288   -2.5640    5.4407 H         1 <0>         0.0600
     56 H20         1.9988   -1.5967    3.0905 H         1 <0>         0.0789
     57 H21         3.2039   -2.3294    2.0047 H         1 <0>         0.0985
     58 H22         3.4791   -0.7018    2.6708 H         1 <0>         0.0962
@<TRIPOS>BOND
     1    1    2 1
     2    1   37 1
     3    1   38 1
     4    1   39 1
     5    2    3 1
     6    2   40 1
     7    2   41 1
     8    3    4 1
     9    3   34 am
    10    4    9 ar
    11    4    5 ar
    12    5    6 ar
    13    5   42 1
    14    6    7 ar
    15    6   43 1
    16    7    8 ar
    17    7   32 1
    18    8   12 1
    19    8    9 ar
    20    9   10 1
    21   10   11 1
    22   11   12 2
    23   11   13 1
    24   13   14 am
    25   13   44 1
    26   14   15 2
    27   14   16 1
    28   16   20 2
    29   16   17 1
    30   17   18 2
    31   17   45 1
    32   18   19 1
    33   19   20 1
    34   19   21 1
    35   20   46 1
    36   21   22 1
    37   21   47 1
    38   21   48 1
    39   22   27 ar
    40   22   23 ar
    41   23   24 ar
    42   23   49 1
    43   24   25 ar
    44   24   50 1
    45   25   26 ar
    46   25   51 1
    47   26   27 ar
    48   26   28 1
    49   27   52 1
    50   28   29 1
    51   28   30 1
    52   28   31 1
    53   32   33 1
    54   33   53 1
    55   33   54 1
    56   33   55 1
    57   34   35 2
    58   34   36 1
    59   36   56 1
    60   36   57 1
    61   36   58 1
