@<TRIPOS>MOLECULE
CHEMBL273590
   47    51     0     0     0
SMALL
USER_CHARGES

@<TRIPOS>ATOM
      1 C1         -0.0167    1.3781    0.0096 C.ar      1 <0>        -0.1249
      2 C2          1.1709    2.0855    0.0021 C.ar      1 <0>        -0.1179
      3 C3          2.3773    1.4107   -0.0130 C.ar      1 <0>        -0.1178
      4 C4          2.3960    0.0285   -0.0201 C.ar      1 <0>        -0.0829
      5 C5          1.2084   -0.6789   -0.0117 C.ar      1 <0>        -0.1182
      6 C6          0.0021   -0.0041    0.0020 C.ar      1 <0>        -0.1182
      7 C7          3.7112   -0.7071   -0.0376 C.3       1 <0>        -0.0800
      8 C8          4.1714   -0.9633    1.3989 C.3       1 <0>        -0.1086
      9 C9          5.5066   -1.7102    1.3812 C.3       1 <0>        -0.1361
     10 C10         5.9667   -1.9663    2.8177 C.3       1 <0>         0.1371
     11 N1          7.2452   -2.6815    2.8007 N.pl3     1 <0>        -0.3536
     12 C11         7.4031   -4.0349    2.7868 C.2       1 <0>         0.3697
     13 C12         8.7854   -4.2756    2.7729 C.2       1 <0>        -0.2676
     14 C13         9.4279   -3.0245    2.7791 C.2       1 <0>         0.1302
     15 N2          8.5154   -2.0918    2.7899 N.2       1 <0>        -0.2633
     16 C14         9.2406   -5.6661    2.7566 C.2       1 <0>         0.4066
     17 N3         10.4211   -6.2496    2.7413 N.2       1 <0>        -0.5163
     18 C15        10.2653   -7.5796    2.7307 C.2       1 <0>         0.3504
     19 N4          8.9772   -7.8668    2.7391 N.2       1 <0>        -0.2999
     20 N5          8.2853   -6.6490    2.7559 N.pl3     1 <0>        -0.3764
     21 C16         6.9624   -6.3141    2.7697 C.2       1 <0>         0.6914
     22 N6          6.5515   -5.0699    2.7844 N.2       1 <0>        -0.5611
     23 N7          6.0250   -7.3206    2.7687 N.pl3     1 <0>        -0.8024
     24 C17        11.3626   -8.5695    2.7126 C.2       1 <0>         0.0424
     25 C18        11.2175   -9.9211    2.6962 C.2       1 <0>        -0.1372
     26 C19        12.5157  -10.4685    2.6817 C.2       1 <0>        -0.2200
     27 C20        13.3801   -9.4348    2.6899 C.2       1 <0>        -0.0042
     28 O1         12.6801   -8.2891    2.7034 O.3       1 <0>        -0.1521
     29 H1         -0.9591    1.9053    0.0259 H         1 <0>         0.1210
     30 H2          1.1563    3.1654    0.0076 H         1 <0>         0.1218
     31 H3          3.3051    1.9634   -0.0196 H         1 <0>         0.1212
     32 H4          1.2231   -1.7588   -0.0176 H         1 <0>         0.1206
     33 H5         -0.9258   -0.5567    0.0082 H         1 <0>         0.1215
     34 H6          3.5884   -1.6586   -0.5549 H         1 <0>         0.0728
     35 H7          4.4573   -0.1052   -0.5563 H         1 <0>         0.0737
     36 H8          4.2941   -0.0118    1.9163 H         1 <0>         0.0697
     37 H9          3.4252   -1.5652    1.9176 H         1 <0>         0.0689
     38 H10         5.3838   -2.6617    0.8639 H         1 <0>         0.0707
     39 H11         6.2527   -1.1082    0.8625 H         1 <0>         0.0750
     40 H12         6.0895   -1.0148    3.3350 H         1 <0>         0.1021
     41 H13         5.2206   -2.5682    3.3364 H         1 <0>         0.0997
     42 H14        10.4957   -2.8630    2.7719 H         1 <0>         0.2022
     43 H15         6.3091   -8.2480    2.7582 H         1 <0>         0.4263
     44 H16         5.0798   -7.1030    2.7784 H         1 <0>         0.4303
     45 H17        10.2870  -10.4693    2.6949 H         1 <0>         0.1599
     46 H18        12.7699  -11.5181    2.6672 H         1 <0>         0.1594
     47 H19        14.4572   -9.5146    2.6826 H         1 <0>         0.2142
@<TRIPOS>BOND
     1    1    6 ar
     2    1    2 ar
     3    1   29 1
     4    2    3 ar
     5    2   30 1
     6    3    4 ar
     7    3   31 1
     8    4    5 ar
     9    4    7 1
    10    5    6 ar
    11    5   32 1
    12    6   33 1
    13    7    8 1
    14    7   34 1
    15    7   35 1
    16    8    9 1
    17    8   36 1
    18    8   37 1
    19    9   10 1
    20    9   38 1
    21    9   39 1
    22   10   11 1
    23   10   40 1
    24   10   41 1
    25   11   15 1
    26   11   12 1
    27   12   22 1
    28   12   13 2
    29   13   14 1
    30   13   16 1
    31   14   15 2
    32   14   42 1
    33   16   20 1
    34   16   17 2
    35   17   18 1
    36   18   19 2
    37   18   24 1
    38   19   20 1
    39   20   21 1
    40   21   22 2
    41   21   23 1
    42   23   43 1
    43   23   44 1
    44   24   28 1
    45   24   25 2
    46   25   26 1
    47   25   45 1
    48   26   27 2
    49   26   46 1
    50   27   28 1
    51   27   47 1
