@<TRIPOS>MOLECULE
CHEMBL605065
   58    61     0     0     0
SMALL
USER_CHARGES

@<TRIPOS>ATOM
      1 C1         -0.0187    1.5258    0.0104 C.3       1 <0>        -0.1677
      2 C2          0.0021   -0.0041    0.0020 C.3       1 <0>         0.1139
      3 N1         -1.3723   -0.5112    0.0124 N.am      1 <0>        -0.7278
      4 C3         -1.6006   -1.8394    0.0075 C.2       1 <0>         0.5171
      5 O1         -0.6682   -2.6149   -0.0056 O.2       1 <0>        -0.5043
      6 C4         -3.0144   -2.3611    0.0182 C.3       1 <0>         0.0313
      7 H1         -3.5805   -1.9494   -0.8174 H         1 <0>         0.1226
      8 C5         -3.7084   -2.0293    1.3638 C.3       1 <0>         0.0511
      9 H2         -3.0081   -2.1165    2.1945 H         1 <0>         0.0945
     10 C6         -4.8001   -3.1239    1.4442 C.3       1 <0>         0.0824
     11 H3         -4.8843   -3.5048    2.4620 H         1 <0>         0.0903
     12 C7         -4.2978   -4.2288    0.4946 C.3       1 <0>         0.3133
     13 O2         -3.0242   -3.8042   -0.0230 O.3       1 <0>        -0.3269
     14 N2         -4.1443   -5.4862    1.2305 N.pl3     1 <0>        -0.4743
     15 C8         -2.9966   -5.9536    1.7990 C.2       1 <0>         0.2673
     16 N3         -3.2191   -7.1005    2.3730 N.2       1 <0>        -0.4571
     17 C9         -4.5191   -7.4422    2.2107 C.ar      1 <0>        -0.1044
     18 C10        -5.1309   -6.4077    1.4795 C.ar      1 <0>         0.3153
     19 N4         -6.4218   -6.4972    1.1874 N.ar      1 <0>        -0.5325
     20 C11        -7.1318   -7.5478    1.5810 C.ar      1 <0>         0.5116
     21 N5         -6.5931   -8.5473    2.2769 N.ar      1 <0>        -0.5690
     22 C12        -5.3077   -8.5392    2.6042 C.ar      1 <0>         0.5140
     23 N6         -4.7567   -9.5814    3.3293 N.pl3     1 <0>        -0.8152
     24 C13        -8.5229   -7.6079    1.2467 C.1       1 <0>        -0.1308
     25 C14        -9.6634   -7.6571    0.9725 C.1       1 <0>        -0.0146
     26 C15       -11.0546   -7.7172    0.6382 C.ar      1 <0>        -0.0266
     27 C16       -11.6456   -6.6851   -0.0959 C.ar      1 <0>        -0.0807
     28 C17       -12.9859   -6.7499   -0.4141 C.ar      1 <0>        -0.1230
     29 C18       -13.7453   -7.8333   -0.0085 C.ar      1 <0>        -0.0422
     30 C19       -13.1672   -8.8588    0.7189 C.ar      1 <0>        -0.1229
     31 C20       -11.8266   -8.8110    1.0393 C.ar      1 <0>        -0.0808
     32 C21       -15.2093   -7.8965   -0.3604 C.3       1 <0>        -0.0651
     33 C22       -15.3803   -8.6044   -1.7059 C.3       1 <0>        -0.1754
     34 C23       -16.8443   -8.6676   -2.0578 C.2       1 <0>         0.4895
     35 O3        -17.6740   -8.1907   -1.3023 O.co2     1 <0>        -0.6984
     36 O4        -17.1991   -9.1957   -3.0978 O.co2     1 <0>        -0.7053
     37 O5         -6.0569   -2.6106    0.9981 O.3       1 <0>        -0.5292
     38 O6         -4.2936   -0.7261    1.3280 O.3       1 <0>        -0.5352
     39 H4          1.0039    1.9031    0.0027 H         1 <0>         0.0783
     40 H5         -0.5459    1.8868   -0.8726 H         1 <0>         0.0646
     41 H6         -0.5289    1.8773    0.9072 H         1 <0>         0.0637
     42 H7          0.5123   -0.3556   -0.8948 H         1 <0>         0.0725
     43 H8          0.5293   -0.3651    0.8851 H         1 <0>         0.0721
     44 H9         -2.1181    0.1091    0.0229 H         1 <0>         0.3983
     45 H10        -5.0029   -4.3610   -0.3260 H         1 <0>         0.1335
     46 H11        -2.0431   -5.4470    1.7761 H         1 <0>         0.2257
     47 H12        -3.8177   -9.5605    3.5715 H         1 <0>         0.4200
     48 H13        -5.3096  -10.3327    3.5953 H         1 <0>         0.4122
     49 H14       -11.0542   -5.8387   -0.4128 H         1 <0>         0.1253
     50 H15       -13.4441   -5.9529   -0.9809 H         1 <0>         0.1294
     51 H16       -13.7662   -9.7011    1.0324 H         1 <0>         0.1295
     52 H17       -11.3756   -9.6145    1.6026 H         1 <0>         0.1256
     53 H18       -15.7450   -8.4491    0.4116 H         1 <0>         0.0740
     54 H19       -15.6106   -6.8854   -0.4282 H         1 <0>         0.0739
     55 H20       -14.8447   -8.0519   -2.4778 H         1 <0>         0.0584
     56 H21       -14.9790   -9.6156   -1.6381 H         1 <0>         0.0584
     57 H22        -6.3912   -1.8738    1.5276 H         1 <0>         0.3970
     58 H23        -3.6563   -0.0124    1.1882 H         1 <0>         0.3829
@<TRIPOS>BOND
     1    1    2 1
     2    1   39 1
     3    1   40 1
     4    1   41 1
     5    2    3 1
     6    2   42 1
     7    2   43 1
     8    3    4 am
     9    3   44 1
    10    4    5 2
    11    4    6 1
    12    6    7 1
    13    6   13 1
    14    6    8 1
    15    8    9 1
    16    8   10 1
    17    8   38 1
    18   10   11 1
    19   10   12 1
    20   10   37 1
    21   12   13 1
    22   12   14 1
    23   12   45 1
    24   14   18 1
    25   14   15 1
    26   15   16 2
    27   15   46 1
    28   16   17 1
    29   17   22 ar
    30   17   18 ar
    31   18   19 ar
    32   19   20 ar
    33   20   21 ar
    34   20   24 1
    35   21   22 ar
    36   22   23 1
    37   23   47 1
    38   23   48 1
    39   24   25 3
    40   25   26 1
    41   26   31 ar
    42   26   27 ar
    43   27   28 ar
    44   27   49 1
    45   28   29 ar
    46   28   50 1
    47   29   30 ar
    48   29   32 1
    49   30   31 ar
    50   30   51 1
    51   31   52 1
    52   32   33 1
    53   32   53 1
    54   32   54 1
    55   33   34 1
    56   33   55 1
    57   33   56 1
    58   34   35 2
    59   34   36 1
    60   37   57 1
    61   38   58 1
