@<TRIPOS>MOLECULE
CHEMBL113967
   43    46     0     0     0
SMALL
USER_CHARGES

@<TRIPOS>ATOM
      1 C1          0.0515    1.3277   -0.1318 C.3       1 <0>        -0.1432
      2 C2         -0.4340   -0.0368    0.3615 C.3       1 <0>         0.1440
      3 C3         -0.2908   -1.0693   -0.7611 C.3       1 <0>        -0.1329
      4 C4         -0.6457   -2.4566   -0.2210 C.3       1 <0>        -0.1218
      5 C5          0.3211   -2.8301    0.9051 C.3       1 <0>        -0.1386
      6 C6          0.1848   -1.8175    2.0465 C.3       1 <0>         0.0719
      7 N1          0.3819   -0.4658    1.5056 N.am      1 <0>        -0.5974
      8 C7          1.2939    0.3648    2.0485 C.2       1 <0>         0.5644
      9 O1          1.3720    1.5157    1.6652 O.2       1 <0>        -0.5096
     10 C8          2.1994   -0.1238    3.1104 C.2       1 <0>        -0.0165
     11 C9          2.6541   -1.4594    3.1012 C.2       1 <0>        -0.2560
     12 C10         3.4873   -1.9004    4.0818 C.2       1 <0>         0.4537
     13 N2          3.8925   -1.0649    5.0806 N.pl3     1 <0>        -0.3149
     14 C11         3.4722    0.2364    5.1221 C.2       1 <0>         0.3307
     15 C12         2.6158    0.7273    4.1234 C.2       1 <0>        -0.1063
     16 N3          4.0199    0.8024    6.1921 N.2       1 <0>        -0.5158
     17 C13         4.7742   -0.0902    6.8346 C.2       1 <0>         0.3437
     18 N4          4.7277   -1.2458    6.1932 N.2       1 <0>        -0.3216
     19 C14         5.5419    0.1712    8.0700 C.2       1 <0>         0.0673
     20 C15         5.5937    1.3517    8.7421 C.2       1 <0>        -0.1271
     21 C16         6.4369    1.1501    9.8525 C.2       1 <0>        -0.1559
     22 C17         6.8544   -0.1316    9.8039 C.2       1 <0>        -0.0093
     23 O2          6.3073   -0.7209    8.7287 O.3       1 <0>        -0.1443
     24 Br1         8.0123   -0.9621   11.0471 Br        1 <0>         0.0662
     25 N5          3.9288   -3.2129    4.0659 N.pl3     1 <0>        -0.8443
     26 H1          1.1256    1.2876   -0.3127 H         1 <0>         0.0667
     27 H2         -0.4636    1.5837   -1.0576 H         1 <0>         0.0490
     28 H3         -0.1617    2.0840    0.6237 H         1 <0>         0.0787
     29 H4         -1.4787    0.0346    0.6641 H         1 <0>         0.0760
     30 H5         -0.9649   -0.8138   -1.5786 H         1 <0>         0.0781
     31 H6          0.7371   -1.0721   -1.1238 H         1 <0>         0.0687
     32 H7         -1.6653   -2.4464    0.1642 H         1 <0>         0.0664
     33 H8         -0.5683   -3.1896   -1.0240 H         1 <0>         0.0684
     34 H9          0.0824   -3.8279    1.2734 H         1 <0>         0.0791
     35 H10         1.3432   -2.8164    0.5266 H         1 <0>         0.0683
     36 H11        -0.8098   -1.8938    2.4858 H         1 <0>         0.0739
     37 H12         0.9389   -2.0204    2.8069 H         1 <0>         0.1129
     38 H13         2.3404   -2.1314    2.3161 H         1 <0>         0.1738
     39 H14         2.2826    1.7544    4.1457 H         1 <0>         0.1695
     40 H15         5.0866    2.2673    8.4760 H         1 <0>         0.1740
     41 H16         6.6994    1.8831   10.6010 H         1 <0>         0.1716
     42 H17         3.6437   -3.8119    3.3583 H         1 <0>         0.4225
     43 H18         4.5230   -3.5331    4.7625 H         1 <0>         0.4162
@<TRIPOS>BOND
     1    1    2 1
     2    1   26 1
     3    1   27 1
     4    1   28 1
     5    2    7 1
     6    2    3 1
     7    2   29 1
     8    3    4 1
     9    3   30 1
    10    3   31 1
    11    4    5 1
    12    4   32 1
    13    4   33 1
    14    5    6 1
    15    5   34 1
    16    5   35 1
    17    6    7 1
    18    6   36 1
    19    6   37 1
    20    7    8 am
    21    8    9 2
    22    8   10 1
    23   10   15 2
    24   10   11 1
    25   11   12 2
    26   11   38 1
    27   12   13 1
    28   12   25 1
    29   13   18 1
    30   13   14 1
    31   14   15 1
    32   14   16 2
    33   15   39 1
    34   16   17 1
    35   17   18 2
    36   17   19 1
    37   19   23 1
    38   19   20 2
    39   20   21 1
    40   20   40 1
    41   21   22 2
    42   21   41 1
    43   22   23 1
    44   22   24 1
    45   25   42 1
    46   25   43 1
