@<TRIPOS>MOLECULE
CHEMBL592541
   77    80     0     0     0
SMALL
USER_CHARGES

@<TRIPOS>ATOM
      1 C1         -0.0187    1.5258    0.0104 C.3       1 <0>        -0.1365
      2 C2          0.0021   -0.0041    0.0020 C.3       1 <0>        -0.1362
      3 C3          0.7182   -0.4975   -1.2568 C.3       1 <0>         0.1530
      4 C4          0.8493   -2.0210   -1.2049 C.3       1 <0>        -0.1356
      5 C5          1.6735   -2.5029   -2.4004 C.3       1 <0>        -0.1528
      6 N1         -0.0549   -0.1139   -2.4405 N.pl3     1 <0>        -0.6829
      7 C6          0.1113    1.1413   -2.9985 C.ar      1 <0>         0.5460
      8 C7         -0.6271    1.5272   -4.1310 C.ar      1 <0>        -0.1493
      9 C8         -0.4180    2.8130   -4.6557 C.ar      1 <0>         0.3513
     10 N2          0.4642    3.6164   -4.0693 N.ar      1 <0>        -0.6073
     11 C9          1.1384    3.2130   -3.0050 C.ar      1 <0>         0.6248
     12 N3          0.9679    2.0094   -2.4726 N.ar      1 <0>        -0.6186
     13 N4          2.0489    4.0792   -2.4222 N.pl3     1 <0>        -0.7033
     14 C10         2.8090    3.6581   -1.2427 C.3       1 <0>         0.1451
     15 C11         3.7364    4.7924   -0.8019 C.3       1 <0>        -0.0784
     16 C12         4.5182    4.3592    0.4114 C.2       1 <0>         0.0394
     17 C13         4.1005    4.4322    1.6895 C.2       1 <0>         0.0338
     18 N5          5.1127    3.9358    2.4660 N.pl3     1 <0>        -0.4047
     19 C14         6.1144    3.5766    1.6346 C.cat     1 <0>         0.2919
     20 N6          5.7499    3.8280    0.4070 N.pl3     1 <0>        -0.4745
     21 C15         5.1098    3.8166    3.9261 C.3       1 <0>         0.0878
     22 C16         4.5439    2.4523    4.3253 C.3       1 <0>        -0.1798
     23 N7         -1.2538    2.9208   -5.7382 N.pl3     1 <0>        -0.4672
     24 C17        -1.9323    1.7423   -5.8499 C.2       1 <0>         0.2323
     25 N8         -1.5631    0.9264   -4.9063 N.2       1 <0>        -0.4465
     26 C18        -1.3925    4.0872   -6.6136 C.3       1 <0>         0.1510
     27 H1         -0.7340    4.8875   -6.2760 H         1 <0>         0.1291
     28 C19        -2.8564    4.5738   -6.6179 C.3       1 <0>        -0.1356
     29 C20        -3.1028    5.0243   -8.0792 C.3       1 <0>         0.1564
     30 H2         -2.6966    6.0213   -8.2497 H         1 <0>         0.1150
     31 C21        -2.3232    3.9663   -8.8990 C.3       1 <0>         0.0579
     32 H3         -2.9106    3.0538   -9.0006 H         1 <0>         0.0745
     33 C22        -1.0522    3.7013   -8.0638 C.3       1 <0>         0.0629
     34 H4         -0.7840    2.6461   -8.1163 H         1 <0>         0.0715
     35 O1          0.0268    4.5057   -8.5442 O.3       1 <0>        -0.5425
     36 O2         -1.9796    4.4844  -10.1857 O.3       1 <0>        -0.5314
     37 N9         -4.5316    4.9860   -8.4004 N.am      1 <0>        -0.7305
     38 C23        -5.0244    5.7749   -9.3757 C.2       1 <0>         0.5114
     39 O3         -4.2850    6.5165   -9.9875 O.2       1 <0>        -0.5158
     40 C24        -6.4942    5.7356   -9.7061 C.3       1 <0>        -0.1437
     41 C25        -6.7884    6.7190  -10.8407 C.3       1 <0>        -0.1394
     42 H5          1.0039    1.9031    0.0027 H         1 <0>         0.0574
     43 H6         -0.5459    1.8868   -0.8726 H         1 <0>         0.0531
     44 H7         -0.5289    1.8773    0.9072 H         1 <0>         0.0412
     45 H8          0.5293   -0.3651    0.8851 H         1 <0>         0.0690
     46 H9         -1.0205   -0.3814    0.0098 H         1 <0>         0.0642
     47 H10         1.7103   -0.0491   -1.3098 H         1 <0>         0.0897
     48 H11         1.3468   -2.3116   -0.2797 H         1 <0>         0.0795
     49 H12        -0.1422   -2.4724   -1.2416 H         1 <0>         0.0710
     50 H13         2.6650   -2.0515   -2.3638 H         1 <0>         0.0522
     51 H14         1.7669   -3.5883   -2.3635 H         1 <0>         0.0593
     52 H15         1.1760   -2.2123   -3.3257 H         1 <0>         0.0563
     53 H16        -0.6834   -0.7398   -2.8331 H         1 <0>         0.4194
     54 H17         2.1833    4.9645   -2.7951 H         1 <0>         0.4170
     55 H18         2.1198    3.4169   -0.4334 H         1 <0>         0.0776
     56 H19         3.4031    2.7778   -1.4885 H         1 <0>         0.0683
     57 H20         4.4256    5.0335   -1.6112 H         1 <0>         0.1036
     58 H21         3.1423    5.6726   -0.5562 H         1 <0>         0.1191
     59 H22         3.1498    4.8100    2.0355 H         1 <0>         0.2227
     60 H23         7.0591    3.1483    1.9355 H         1 <0>         0.2608
     61 H24         6.1292    3.9107    4.3003 H         1 <0>         0.1222
     62 H25         4.4914    4.6058    4.3538 H         1 <0>         0.1244
     63 H26         3.5244    2.3583    3.9510 H         1 <0>         0.0744
     64 H27         5.1622    1.6632    3.8975 H         1 <0>         0.0722
     65 H28         4.5417    2.3636    5.4117 H         1 <0>         0.1007
     66 H29        -2.6677    1.5199   -6.6090 H         1 <0>         0.2162
     67 H30        -3.5299    3.7593   -6.3511 H         1 <0>         0.0897
     68 H31        -2.9814    5.4131   -5.9337 H         1 <0>         0.0979
     69 H32         0.2884    4.3100   -9.4543 H         1 <0>         0.3864
     70 H33        -1.4898    3.8632  -10.7418 H         1 <0>         0.3745
     71 H34        -5.1230    4.3929   -7.9111 H         1 <0>         0.4008
     72 H35        -6.7696    4.7281  -10.0180 H         1 <0>         0.0929
     73 H36        -7.0723    6.0140   -8.8250 H         1 <0>         0.0932
     74 H37        -6.5129    7.7264  -10.5289 H         1 <0>         0.0620
     75 H38        -6.2103    6.4405  -11.7219 H         1 <0>         0.0625
     76 H39        -7.8515    6.6905  -11.0797 H         1 <0>         0.0631
     77 H40         6.2858    3.6592   -0.3836 H         1 <0>         0.4631
@<TRIPOS>BOND
     1    1    2 1
     2    1   42 1
     3    1   43 1
     4    1   44 1
     5    2    3 1
     6    2   45 1
     7    2   46 1
     8    3    4 1
     9    3    6 1
    10    3   47 1
    11    4    5 1
    12    4   48 1
    13    4   49 1
    14    5   50 1
    15    5   51 1
    16    5   52 1
    17    6    7 1
    18    6   53 1
    19    7   12 ar
    20    7    8 ar
    21    8   25 1
    22    8    9 ar
    23    9   10 ar
    24    9   23 1
    25   10   11 ar
    26   11   12 ar
    27   11   13 1
    28   13   14 1
    29   13   54 1
    30   14   15 1
    31   14   55 1
    32   14   56 1
    33   15   16 1
    34   15   57 1
    35   15   58 1
    36   16   20 1
    37   16   17 2
    38   17   18 1
    39   17   59 1
    40   18   19 1
    41   18   21 1
    42   19   20 2
    43   19   60 1
    44   20   77 1
    45   21   22 1
    46   21   61 1
    47   21   62 1
    48   22   63 1
    49   22   64 1
    50   22   65 1
    51   23   24 1
    52   23   26 1
    53   24   25 2
    54   24   66 1
    55   26   27 1
    56   26   33 1
    57   26   28 1
    58   28   29 1
    59   28   67 1
    60   28   68 1
    61   29   30 1
    62   29   31 1
    63   29   37 1
    64   31   32 1
    65   31   33 1
    66   31   36 1
    67   33   34 1
    68   33   35 1
    69   35   69 1
    70   36   70 1
    71   37   38 am
    72   37   71 1
    73   38   39 2
    74   38   40 1
    75   40   41 1
    76   40   72 1
    77   40   73 1
    78   41   74 1
    79   41   75 1
    80   41   76 1
