@<TRIPOS>MOLECULE
CHEMBL577036
   49    52     0     0     0
SMALL
USER_CHARGES

@<TRIPOS>ATOM
      1 C1         -0.0167    1.3781    0.0096 C.ar      1 <0>        -0.1214
      2 C2          1.1709    2.0855    0.0021 C.ar      1 <0>        -0.1185
      3 C3          2.3773    1.4107   -0.0130 C.ar      1 <0>        -0.1132
      4 C4          2.3960    0.0285   -0.0201 C.ar      1 <0>        -0.0787
      5 C5          1.2084   -0.6789   -0.0117 C.ar      1 <0>        -0.1131
      6 C6          0.0021   -0.0041    0.0020 C.ar      1 <0>        -0.1184
      7 C7          3.7112   -0.7071   -0.0376 C.3       1 <0>        -0.0666
      8 C8          4.1714   -0.9633    1.3989 C.3       1 <0>        -0.1011
      9 S1          5.7544   -1.8488    1.3779 S.3       1 <0>         0.0124
     10 C9          6.1443   -2.0654    3.0825 C.ar      1 <0>         0.3673
     11 N1          5.3020   -1.5997    3.9972 N.ar      1 <0>        -0.5954
     12 C10         5.5517   -1.7385    5.2940 C.ar      1 <0>         0.5231
     13 C11         6.7333   -2.3926    5.6853 C.ar      1 <0>        -0.1144
     14 C12         7.5943   -2.8687    4.6830 C.ar      1 <0>         0.3284
     15 N2          7.2642   -2.6916    3.4075 N.ar      1 <0>        -0.5279
     16 N3          8.6496   -3.4531    5.3365 N.pl3     1 <0>        -0.4707
     17 C13         8.4214   -3.3274    6.6759 C.2       1 <0>         0.2631
     18 N4          7.2970   -2.7052    6.8781 N.2       1 <0>        -0.4569
     19 C14         9.8085   -4.0950    4.7110 C.3       1 <0>         0.3135
     20 H1          9.5091   -4.6111    3.7988 H         1 <0>         0.1235
     21 C15        10.9017   -3.0481    4.4024 C.3       1 <0>         0.0794
     22 H2         10.7988   -2.1837    5.0584 H         1 <0>         0.0851
     23 C16        12.2253   -3.7915    4.6899 C.3       1 <0>         0.0476
     24 H3         12.7768   -3.2946    5.4881 H         1 <0>         0.0870
     25 C17        11.7752   -5.1996    5.1383 C.3       1 <0>         0.0503
     26 H4         11.7788   -5.8865    4.2919 H         1 <0>         0.1004
     27 O1         10.4287   -5.0194    5.6312 O.3       1 <0>        -0.3466
     28 C18        12.6874   -5.7214    6.2503 C.3       1 <0>         0.0823
     29 O2         12.3277   -7.0671    6.5692 O.3       1 <0>        -0.5634
     30 O3         13.0224   -3.8707    3.5065 O.3       1 <0>        -0.5383
     31 O4         10.8374   -2.6459    3.0327 O.3       1 <0>        -0.5244
     32 N5          4.6683   -1.2495    6.2399 N.pl3     1 <0>        -0.8149
     33 H5         -0.9591    1.9053    0.0259 H         1 <0>         0.1214
     34 H6          1.1563    3.1654    0.0076 H         1 <0>         0.1223
     35 H7          3.3051    1.9634   -0.0196 H         1 <0>         0.1229
     36 H8          1.2231   -1.7588   -0.0176 H         1 <0>         0.1230
     37 H9         -0.9258   -0.5567    0.0082 H         1 <0>         0.1224
     38 H10         3.5884   -1.6586   -0.5549 H         1 <0>         0.0847
     39 H11         4.4573   -0.1052   -0.5563 H         1 <0>         0.0847
     40 H12         4.2941   -0.0118    1.9163 H         1 <0>         0.0954
     41 H13         3.4252   -1.5652    1.9176 H         1 <0>         0.0956
     42 H14         9.0770   -3.6912    7.4532 H         1 <0>         0.2244
     43 H15        13.7237   -5.6924    5.9138 H         1 <0>         0.0671
     44 H16        12.5752   -5.0958    7.1358 H         1 <0>         0.0609
     45 H17        12.8659   -7.4630    7.2683 H         1 <0>         0.3867
     46 H18        13.8654   -4.3280    3.6300 H         1 <0>         0.3872
     47 H19        11.5021   -1.9890    2.7840 H         1 <0>         0.3906
     48 H20         3.8563   -0.7996    5.9585 H         1 <0>         0.4106
     49 H21         4.8609   -1.3565    7.1846 H         1 <0>         0.4204
@<TRIPOS>BOND
     1    1    6 ar
     2    1    2 ar
     3    1   33 1
     4    2    3 ar
     5    2   34 1
     6    3    4 ar
     7    3   35 1
     8    4    5 ar
     9    4    7 1
    10    5    6 ar
    11    5   36 1
    12    6   37 1
    13    7    8 1
    14    7   38 1
    15    7   39 1
    16    8    9 1
    17    8   40 1
    18    8   41 1
    19    9   10 1
    20   10   15 ar
    21   10   11 ar
    22   11   12 ar
    23   12   13 ar
    24   12   32 1
    25   13   18 1
    26   13   14 ar
    27   14   15 ar
    28   14   16 1
    29   16   17 1
    30   16   19 1
    31   17   18 2
    32   17   42 1
    33   19   20 1
    34   19   27 1
    35   19   21 1
    36   21   22 1
    37   21   23 1
    38   21   31 1
    39   23   24 1
    40   23   25 1
    41   23   30 1
    42   25   26 1
    43   25   27 1
    44   25   28 1
    45   28   29 1
    46   28   43 1
    47   28   44 1
    48   29   45 1
    49   30   46 1
    50   31   47 1
    51   32   48 1
    52   32   49 1
