@<TRIPOS>MOLECULE
CHEMBL468370
   31    33     0     0     0
SMALL
USER_CHARGES

@<TRIPOS>ATOM
      1 C1         -0.0167    1.3792    0.0096 C.ar      1 <0>        -0.1044
      2 C2          1.1686    2.0926    0.0021 C.ar      1 <0>        -0.1191
      3 C3          2.3774    1.4273   -0.0129 C.ar      1 <0>        -0.0902
      4 C4          2.4027    0.0331   -0.0206 C.ar      1 <0>        -0.0729
      5 C5          1.2048   -0.6804   -0.0130 C.ar      1 <0>        -0.0928
      6 C6          0.0021   -0.0041    0.0020 C.ar      1 <0>        -0.1173
      7 C7          3.6976   -0.6873   -0.0373 C.ar      1 <0>         0.0999
      8 C8          4.6882   -0.3548   -0.9568 C.ar      1 <0>        -0.2051
      9 C9          5.8947   -1.0552   -0.9425 C.ar      1 <0>         0.2933
     10 N1          6.1109   -2.0329   -0.0655 N.ar      1 <0>        -0.5318
     11 C10         5.2021   -2.3851    0.8265 C.ar      1 <0>         0.4701
     12 C11         3.9613   -1.7257    0.8834 C.ar      1 <0>        -0.1512
     13 C12         2.9797   -2.1040    1.8550 C.1       1 <0>         0.2576
     14 N2          2.2010   -2.4041    2.6257 N.1       1 <0>        -0.4093
     15 N3          5.4759   -3.4091    1.7166 N.pl3     1 <0>        -0.8339
     16 C13         6.9472   -0.7071   -1.9148 C.2       1 <0>        -0.0019
     17 C14         8.1661   -1.3047   -2.0218 C.2       1 <0>        -0.1328
     18 C15         8.8417   -0.6611   -3.0753 C.2       1 <0>        -0.2229
     19 C16         8.0126    0.2880   -3.5558 C.2       1 <0>        -0.0101
     20 O1          6.8680    0.2539   -2.8562 O.3       1 <0>        -0.1649
     21 H1         -0.9603    1.9042    0.0260 H         1 <0>         0.1270
     22 H2          1.1477    3.1724    0.0077 H         1 <0>         0.1297
     23 H3          3.3021    1.9853   -0.0191 H         1 <0>         0.1304
     24 H4          1.2182   -1.7603   -0.0193 H         1 <0>         0.1216
     25 H5         -0.9264   -0.5557    0.0082 H         1 <0>         0.1277
     26 H6          4.5246    0.4364   -1.6736 H         1 <0>         0.1506
     27 H7          6.3317   -3.8644    1.6837 H         1 <0>         0.4138
     28 H8          4.8119   -3.6713    2.3733 H         1 <0>         0.4125
     29 H9          8.5418   -2.1154   -1.4152 H         1 <0>         0.1595
     30 H10         9.8366   -0.8846   -3.4313 H         1 <0>         0.1557
     31 H11         8.2322    0.9616   -4.3709 H         1 <0>         0.2112
@<TRIPOS>BOND
     1    1    6 ar
     2    1    2 ar
     3    1   21 1
     4    2    3 ar
     5    2   22 1
     6    3    4 ar
     7    3   23 1
     8    4    5 ar
     9    4    7 1
    10    5    6 ar
    11    5   24 1
    12    6   25 1
    13    7   12 ar
    14    7    8 ar
    15    8    9 ar
    16    8   26 1
    17    9   10 ar
    18    9   16 1
    19   10   11 ar
    20   11   12 ar
    21   11   15 1
    22   12   13 1
    23   13   14 3
    24   15   27 1
    25   15   28 1
    26   16   20 1
    27   16   17 2
    28   17   18 1
    29   17   29 1
    30   18   19 2
    31   18   30 1
    32   19   20 1
    33   19   31 1
