@<TRIPOS>MOLECULE
CHEMBL86605
   51    54     0     0     0
SMALL
USER_CHARGES

@<TRIPOS>ATOM
      1 C1         -0.0187    1.5258    0.0104 C.3       1 <0>        -0.1635
      2 C2          0.0021   -0.0041    0.0020 C.3       1 <0>         0.1540
      3 C3         -1.4333   -0.5336    0.0129 C.3       1 <0>        -0.0919
      4 C4         -1.4136   -2.0361    0.1285 C.ar      1 <0>        -0.0826
      5 C5         -1.3741   -2.8166   -1.0118 C.ar      1 <0>        -0.1115
      6 C6         -1.3560   -4.1947   -0.9058 C.ar      1 <0>        -0.1171
      7 C7         -1.3769   -4.7924    0.3405 C.ar      1 <0>        -0.1240
      8 C8         -1.4154   -4.0119    1.4808 C.ar      1 <0>        -0.1179
      9 C9         -1.4292   -2.6337    1.3749 C.ar      1 <0>        -0.1150
     10 N1          0.6878   -0.4765   -1.2033 N.pl3     1 <0>        -0.6847
     11 C10         2.0670   -0.5899   -1.2152 C.ar      1 <0>         0.5115
     12 C11         2.7419   -1.0359   -2.3646 C.ar      1 <0>        -0.1075
     13 C12         4.1428   -1.1305   -2.3163 C.ar      1 <0>         0.3134
     14 N2          4.7745   -0.7974   -1.1952 N.ar      1 <0>        -0.5526
     15 C13         4.1006   -0.3842   -0.1429 C.ar      1 <0>         0.3643
     16 N3          2.7844   -0.2745   -0.1421 N.ar      1 <0>        -0.5871
     17 N4          4.5341   -1.5835   -3.5508 N.pl3     1 <0>        -0.4712
     18 C14         3.4080   -1.7505   -4.3006 C.2       1 <0>         0.2597
     19 N5          2.3576   -1.4287   -3.6028 N.2       1 <0>        -0.4589
     20 C15         5.9098   -1.8403   -3.9839 C.3       1 <0>         0.3142
     21 C16         6.3226   -3.2872   -3.6342 C.3       1 <0>         0.0797
     22 H1          5.4428   -3.9248   -3.5469 H         1 <0>         0.0850
     23 C17         7.1945   -3.7285   -4.8309 C.3       1 <0>         0.0471
     24 H2          6.7459   -4.5843   -5.3353 H         1 <0>         0.0868
     25 C18         7.2055   -2.4960   -5.7621 C.3       1 <0>         0.0506
     26 H3          8.0877   -1.8847   -5.5720 H         1 <0>         0.1000
     27 O1          6.0059   -1.7667   -5.4231 O.3       1 <0>        -0.3472
     28 C19         7.1685   -2.9351   -7.2273 C.3       1 <0>         0.0822
     29 O2          7.2966   -1.7891   -8.0713 O.3       1 <0>        -0.5634
     30 O3          8.5191   -4.0430   -4.3963 O.3       1 <0>        -0.5388
     31 O4          7.0801   -3.3129   -2.4228 O.3       1 <0>        -0.5256
     32 H4          1.0039    1.9031    0.0027 H         1 <0>         0.0647
     33 H5         -0.5459    1.8868   -0.8726 H         1 <0>         0.0558
     34 H6         -0.5289    1.8773    0.9072 H         1 <0>         0.0681
     35 H7          0.5293   -0.3651    0.8851 H         1 <0>         0.0971
     36 H8         -1.9701   -0.1109    0.8621 H         1 <0>         0.0925
     37 H9         -1.9334   -0.2470   -0.9122 H         1 <0>         0.0788
     38 H10        -1.3577   -2.3496   -1.9855 H         1 <0>         0.1176
     39 H11        -1.3258   -4.8045   -1.7967 H         1 <0>         0.1199
     40 H12        -1.3634   -5.8691    0.4233 H         1 <0>         0.1196
     41 H13        -1.4321   -4.4789    2.4545 H         1 <0>         0.1213
     42 H14        -1.4556   -2.0238    2.2658 H         1 <0>         0.1220
     43 H15         0.1751   -0.7099   -1.9930 H         1 <0>         0.4144
     44 H16         4.6445   -0.1217    0.7525 H         1 <0>         0.2036
     45 H17         3.3901   -2.0985   -5.3228 H         1 <0>         0.2214
     46 H18         6.5919   -1.1270   -3.5211 H         1 <0>         0.1230
     47 H19         7.9915   -3.6230   -7.4213 H         1 <0>         0.0669
     48 H20         6.2216   -3.4341   -7.4333 H         1 <0>         0.0609
     49 H21         7.2812   -1.9930   -9.0164 H         1 <0>         0.3867
     50 H22         9.1096   -4.3262   -5.1078 H         1 <0>         0.3872
     51 H23         7.3654   -4.1975   -2.1560 H         1 <0>         0.3905
@<TRIPOS>BOND
     1    1    2 1
     2    1   32 1
     3    1   33 1
     4    1   34 1
     5    2    3 1
     6    2   10 1
     7    2   35 1
     8    3    4 1
     9    3   36 1
    10    3   37 1
    11    4    9 ar
    12    4    5 ar
    13    5    6 ar
    14    5   38 1
    15    6    7 ar
    16    6   39 1
    17    7    8 ar
    18    7   40 1
    19    8    9 ar
    20    8   41 1
    21    9   42 1
    22   10   11 1
    23   10   43 1
    24   11   16 ar
    25   11   12 ar
    26   12   19 1
    27   12   13 ar
    28   13   14 ar
    29   13   17 1
    30   14   15 ar
    31   15   16 ar
    32   15   44 1
    33   17   18 1
    34   17   20 1
    35   18   19 2
    36   18   45 1
    37   20   27 1
    38   20   21 1
    39   20   46 1
    40   21   22 1
    41   21   23 1
    42   21   31 1
    43   23   24 1
    44   23   25 1
    45   23   30 1
    46   25   26 1
    47   25   27 1
    48   25   28 1
    49   28   29 1
    50   28   47 1
    51   28   48 1
    52   29   49 1
    53   30   50 1
    54   31   51 1
