@<TRIPOS>MOLECULE
CHEMBL1087819
   55    59     0     0     0
SMALL
USER_CHARGES

@<TRIPOS>ATOM
      1 C1         -6.7302    1.1948    6.3494 C.3       1 <0>        -0.1797
      2 C2         -7.1056   -0.2160    5.9758 C.2       1 <0>         0.5213
      3 O1         -8.2213   -0.6292    6.2112 O.2       1 <0>        -0.5133
      4 N1         -6.2016   -1.0187    5.3802 N.am      1 <0>        -0.6369
      5 C3         -4.8406   -0.5411    5.0906 C.3       1 <0>         0.0858
      6 C4         -4.5209   -0.8457    3.6234 C.3       1 <0>        -0.0203
      7 N2         -4.7290   -2.2761    3.3648 N.4       1 <0>        -0.3820
      8 C5         -6.1472   -2.6145    3.5386 C.3       1 <0>        -0.0254
      9 C6         -6.5458   -2.3994    5.0067 C.3       1 <0>         0.0893
     10 C7         -4.3179   -2.5881    1.9895 C.3       1 <0>         0.0434
     11 C8         -4.3934   -4.0769    1.7682 C.ar      1 <0>        -0.1160
     12 C9         -5.4496   -4.6182    1.0504 C.ar      1 <0>        -0.0713
     13 C10        -5.5274   -5.9804    0.8420 C.ar      1 <0>        -0.0933
     14 C11        -4.5486   -6.8213    1.3497 C.ar      1 <0>        -0.0205
     15 C12        -3.4867   -6.2920    2.0696 C.ar      1 <0>        -0.1339
     16 C13        -3.4033   -4.9047    2.2776 C.ar      1 <0>        -0.0140
     17 C14        -2.1764   -4.6180    3.0632 C.ar      1 <0>         0.2793
     18 C15        -1.5169   -5.8363    3.3236 C.ar      1 <0>        -0.3336
     19 C16        -0.3220   -5.8099    4.0584 C.ar      1 <0>         0.3600
     20 N3          0.1408   -4.6328    4.4804 N.ar      1 <0>        -0.5579
     21 C17        -0.5099   -3.5116    4.2138 C.ar      1 <0>         0.6084
     22 N4         -1.6445   -3.4947    3.5211 N.ar      1 <0>        -0.5895
     23 N5          0.0073   -2.3178    4.6716 N.pl3     1 <0>        -0.8008
     24 C18         0.4091   -7.0624    4.3593 C.ar      1 <0>        -0.0975
     25 C19        -0.2937   -8.2428    4.6003 C.ar      1 <0>        -0.0596
     26 C20         0.3930   -9.4064    4.8801 C.ar      1 <0>        -0.1258
     27 C21         1.7759   -9.4038    4.9218 C.ar      1 <0>        -0.0825
     28 C22         2.4786   -8.2361    4.6841 C.ar      1 <0>        -0.1310
     29 C23         1.8034   -7.0675    4.3971 C.ar      1 <0>        -0.0611
     30 C24        -2.3117   -6.9212    2.7239 C.2       1 <0>         0.4543
     31 O2         -2.0483   -8.1070    2.7481 O.2       1 <0>        -0.3879
     32 H1         -7.5835    1.6863    6.8168 H         1 <0>         0.1043
     33 H2         -5.8942    1.1753    7.0486 H         1 <0>         0.0956
     34 H3         -6.4412    1.7434    5.4528 H         1 <0>         0.0941
     35 H4         -4.7856    0.5340    5.2619 H         1 <0>         0.1343
     36 H5         -4.1273   -1.0546    5.7352 H         1 <0>         0.0956
     37 H6         -5.1774   -0.2607    2.9793 H         1 <0>         0.1371
     38 H7         -3.4827   -0.5862    3.4162 H         1 <0>         0.1467
     39 H8         -6.7545   -1.9760    2.8970 H         1 <0>         0.1382
     40 H9         -6.3074   -3.6584    3.2689 H         1 <0>         0.1404
     41 H10        -6.0017   -3.0974    5.6430 H         1 <0>         0.0918
     42 H11        -7.6186   -2.5535    5.1225 H         1 <0>         0.1374
     43 H12        -4.9817   -2.0824    1.2882 H         1 <0>         0.1426
     44 H13        -3.2944   -2.2486    1.8303 H         1 <0>         0.1471
     45 H14        -6.2162   -3.9698    0.6524 H         1 <0>         0.1501
     46 H15        -6.3535   -6.3929    0.2818 H         1 <0>         0.1553
     47 H16        -4.6128   -7.8868    1.1855 H         1 <0>         0.1541
     48 H17         0.8339   -2.3102    5.1790 H         1 <0>         0.4274
     49 H18        -0.4556   -1.4858    4.4861 H         1 <0>         0.4169
     50 H19        -1.3733   -8.2460    4.5683 H         1 <0>         0.1327
     51 H20        -0.1501  -10.3210    5.0672 H         1 <0>         0.1325
     52 H21         2.3090  -10.3171    5.1412 H         1 <0>         0.1315
     53 H22         3.5580   -8.2402    4.7187 H         1 <0>         0.1327
     54 H23         2.3532   -6.1576    4.2069 H         1 <0>         0.1304
     55 H24        -4.1737   -2.8175    4.0103 H         1 <0>         0.4231
@<TRIPOS>BOND
     1    1    2 1
     2    1   32 1
     3    1   33 1
     4    1   34 1
     5    2    3 2
     6    2    4 am
     7    4    9 1
     8    4    5 1
     9    5    6 1
    10    5   35 1
    11    5   36 1
    12    6    7 1
    13    6   37 1
    14    6   38 1
    15    7    8 1
    16    7   10 1
    17    7   55 1
    18    8    9 1
    19    8   39 1
    20    8   40 1
    21    9   41 1
    22    9   42 1
    23   10   11 1
    24   10   43 1
    25   10   44 1
    26   11   16 ar
    27   11   12 ar
    28   12   13 ar
    29   12   45 1
    30   13   14 ar
    31   13   46 1
    32   14   15 ar
    33   14   47 1
    34   15   30 1
    35   15   16 ar
    36   16   17 1
    37   17   22 ar
    38   17   18 ar
    39   18   19 ar
    40   18   30 1
    41   19   20 ar
    42   19   24 1
    43   20   21 ar
    44   21   22 ar
    45   21   23 1
    46   23   48 1
    47   23   49 1
    48   24   29 ar
    49   24   25 ar
    50   25   26 ar
    51   25   50 1
    52   26   27 ar
    53   26   51 1
    54   27   28 ar
    55   27   52 1
    56   28   29 ar
    57   28   53 1
    58   29   54 1
    59   30   31 2
