@<TRIPOS>MOLECULE
CHEMBL608005
   50    53     0     0     0
SMALL
USER_CHARGES

@<TRIPOS>ATOM
      1 C1         -0.0164    1.3590    0.0095 C.2       1 <0>         0.2666
      2 N1          1.2006    1.8206    0.0004 N.2       1 <0>        -0.4578
      3 C2          2.0754    0.7871   -0.0135 C.ar      1 <0>        -0.1044
      4 C3          3.4784    0.6816   -0.0279 C.ar      1 <0>         0.5144
      5 N2          4.0240   -0.5276   -0.0400 N.ar      1 <0>        -0.5722
      6 C4          3.2683   -1.6225   -0.0386 C.ar      1 <0>         0.5024
      7 N3          1.9438   -1.5670   -0.0257 N.ar      1 <0>        -0.5301
      8 C5          1.3171   -0.3971   -0.0127 C.ar      1 <0>         0.3174
      9 N4          0.0021   -0.0041    0.0020 N.pl3     1 <0>        -0.4697
     10 C6         -1.1668   -0.8871    0.0089 C.3       1 <0>         0.3129
     11 C7         -1.5540   -1.2556    1.4583 C.3       1 <0>         0.0789
     12 H1         -1.1953   -0.4970    2.1540 H         1 <0>         0.0861
     13 C8         -3.0987   -1.2847    1.4384 C.3       1 <0>         0.0475
     14 H2         -3.5036   -0.5406    2.1242 H         1 <0>         0.0876
     15 C9         -3.4621   -0.9305   -0.0207 C.3       1 <0>         0.0503
     16 H3         -3.6135   -1.8381   -0.6051 H         1 <0>         0.1003
     17 O1         -2.3213   -0.1972   -0.5174 O.3       1 <0>        -0.3464
     18 C10        -4.7178   -0.0573   -0.0599 C.3       1 <0>         0.0823
     19 O2         -5.1032    0.1621   -1.4183 O.3       1 <0>        -0.5634
     20 O3         -3.5792   -2.5878    1.7747 O.3       1 <0>        -0.5386
     21 O4         -1.0307   -2.5391    1.8055 O.3       1 <0>        -0.5255
     22 C11         3.9070   -2.9041   -0.0520 C.1       1 <0>        -0.1305
     23 C12         4.4307   -3.9548   -0.0630 C.1       1 <0>        -0.0800
     24 C13         5.0872   -5.2722   -0.0768 C.3       1 <0>        -0.0062
     25 C14         4.0237   -6.3721   -0.0724 C.3       1 <0>        -0.0895
     26 C15         3.2765   -6.3794    1.2772 C.3       1 <0>        -0.1217
     27 C16         3.0244   -7.8805    1.5637 C.3       1 <0>        -0.1267
     28 C17         4.3265   -8.5487    1.0566 C.3       1 <0>        -0.1261
     29 C18         4.6914   -7.7514   -0.2126 C.3       1 <0>        -0.1214
     30 N5          4.2724    1.8152   -0.0299 N.pl3     1 <0>        -0.8146
     31 H4         -0.9093    1.9664    0.0254 H         1 <0>         0.2254
     32 H5         -0.9651   -1.7870   -0.5722 H         1 <0>         0.1242
     33 H6         -5.5265   -0.5599    0.4706 H         1 <0>         0.0672
     34 H7         -4.5097    0.9001    0.4179 H         1 <0>         0.0612
     35 H8         -5.8941    0.7093   -1.5193 H         1 <0>         0.3868
     36 H9         -4.5433   -2.6629    1.7773 H         1 <0>         0.3874
     37 H10        -1.2440   -2.8205    2.7057 H         1 <0>         0.3909
     38 H11         5.7004   -5.3632   -0.9733 H         1 <0>         0.0964
     39 H12         5.7179   -5.3731    0.8065 H         1 <0>         0.0964
     40 H13         3.3195   -6.2134   -0.8891 H         1 <0>         0.0783
     41 H14         3.8966   -5.9407    2.0589 H         1 <0>         0.0675
     42 H15         2.3313   -5.8431    1.1928 H         1 <0>         0.0666
     43 H16         2.8924   -8.0530    2.6318 H         1 <0>         0.0654
     44 H17         2.1617   -8.2412    1.0035 H         1 <0>         0.0664
     45 H18         5.1162   -8.4603    1.8028 H         1 <0>         0.0657
     46 H19         4.1476   -9.5955    0.8113 H         1 <0>         0.0645
     47 H20         4.3105   -8.2624   -1.0969 H         1 <0>         0.0666
     48 H21         5.7730   -7.6372   -0.2838 H         1 <0>         0.0683
     49 H22         3.8626    2.6943   -0.0213 H         1 <0>         0.4208
     50 H23         5.2386    1.7306   -0.0398 H         1 <0>         0.4120
@<TRIPOS>BOND
     1    1    9 1
     2    1    2 2
     3    1   31 1
     4    2    3 1
     5    3    8 ar
     6    3    4 ar
     7    4    5 ar
     8    4   30 1
     9    5    6 ar
    10    6    7 ar
    11    6   22 1
    12    7    8 ar
    13    8    9 1
    14    9   10 1
    15   10   17 1
    16   10   11 1
    17   10   32 1
    18   11   12 1
    19   11   13 1
    20   11   21 1
    21   13   14 1
    22   13   15 1
    23   13   20 1
    24   15   16 1
    25   15   17 1
    26   15   18 1
    27   18   19 1
    28   18   33 1
    29   18   34 1
    30   19   35 1
    31   20   36 1
    32   21   37 1
    33   22   23 3
    34   23   24 1
    35   24   25 1
    36   24   38 1
    37   24   39 1
    38   25   29 1
    39   25   26 1
    40   25   40 1
    41   26   27 1
    42   26   41 1
    43   26   42 1
    44   27   28 1
    45   27   43 1
    46   27   44 1
    47   28   29 1
    48   28   45 1
    49   28   46 1
    50   29   47 1
    51   29   48 1
    52   30   49 1
    53   30   50 1
