@<TRIPOS>MOLECULE
CHEMBL409700
   47    50     0     0     0
SMALL
USER_CHARGES

@<TRIPOS>ATOM
      1 C1         -0.0175    1.5029    0.0166 C.3       1 <0>        -0.0785
      2 C2          0.0028   -0.0040    0.0070 C.2       1 <0>         0.0192
      3 C3         -1.0824   -0.8047    0.0059 C.2       1 <0>        -0.2243
      4 C4         -0.6155   -2.1325   -0.0051 C.2       1 <0>        -0.1126
      5 C5          0.7437   -2.0698   -0.0102 C.2       1 <0>         0.0097
      6 O1          1.1032   -0.7711   -0.0078 O.3       1 <0>        -0.1512
      7 C6          1.6640   -3.2234   -0.0215 C.ar      1 <0>         0.4426
      8 N1          2.9730   -3.0056   -0.0200 N.ar      1 <0>        -0.5164
      9 C7          3.8329   -4.0240   -0.0299 C.ar      1 <0>         0.2833
     10 C8          3.3376   -5.3300   -0.0420 C.ar      1 <0>        -0.2211
     11 C9          1.9566   -5.5156   -0.0432 C.ar      1 <0>         0.4235
     12 N2          1.1603   -4.4527   -0.0274 N.ar      1 <0>        -0.4915
     13 N3          1.4187   -6.7984   -0.0550 N.am      1 <0>        -0.6556
     14 C10         0.0859   -6.9712    0.0470 C.2       1 <0>         0.5021
     15 O2         -0.6514   -6.0084    0.0563 O.2       1 <0>        -0.4486
     16 C11        -0.4881   -8.3608    0.1494 C.3       1 <0>        -0.0917
     17 C12        -1.9893   -8.2779    0.2519 C.ar      1 <0>        -0.1134
     18 C13        -2.5920   -8.1811    1.4925 C.ar      1 <0>        -0.0615
     19 C14        -3.9680   -8.1055    1.5893 C.ar      1 <0>        -0.1501
     20 C15        -4.7451   -8.1262    0.4402 C.ar      1 <0>         0.1320
     21 C16        -4.1379   -8.2229   -0.8034 C.ar      1 <0>        -0.2068
     22 C17        -2.7613   -8.2931   -0.8950 C.ar      1 <0>        -0.0610
     23 O3         -6.0990   -8.0523    0.5328 O.3       1 <0>        -0.3176
     24 C18        -6.8354   -8.0791   -0.6916 C.3       1 <0>         0.0265
     25 C19         5.2902   -3.7748   -0.0287 C.2       1 <0>         0.1217
     26 N4          6.2921   -4.6428   -0.0432 N.2       1 <0>        -0.4746
     27 C20         7.5397   -4.2436   -0.0394 C.2       1 <0>         0.0212
     28 C21         7.8256   -2.9122   -0.0202 C.2       1 <0>        -0.1942
     29 S1          6.1757   -2.2215   -0.0151 S.3       1 <0>         0.0952
     30 H1          1.0052    1.8800    0.0101 H         1 <0>         0.0792
     31 H2         -0.5439    1.8648   -0.8666 H         1 <0>         0.0905
     32 H3         -0.5284    1.8536    0.9133 H         1 <0>         0.0907
     33 H4         -2.1146   -0.4872    0.0127 H         1 <0>         0.1562
     34 H5         -1.2194   -3.0279   -0.0084 H         1 <0>         0.1656
     35 H6          4.0091   -6.1758   -0.0506 H         1 <0>         0.1641
     36 H7          2.0027   -7.5685   -0.1367 H         1 <0>         0.4250
     37 H8         -0.2155   -8.9328   -0.7375 H         1 <0>         0.1079
     38 H9         -0.0900   -8.8539    1.0362 H         1 <0>         0.1091
     39 H10        -1.9866   -8.1651    2.3867 H         1 <0>         0.1277
     40 H11        -4.4384   -8.0306    2.5586 H         1 <0>         0.1317
     41 H12        -4.7408   -8.2392   -1.6994 H         1 <0>         0.1287
     42 H13        -2.2879   -8.3639   -1.8631 H         1 <0>         0.1231
     43 H14        -7.9017   -8.0134   -0.4758 H         1 <0>         0.1011
     44 H15        -6.5378   -7.2345   -1.3131 H         1 <0>         0.0564
     45 H16        -6.6282   -9.0097   -1.2199 H         1 <0>         0.0560
     46 H17         8.3400   -4.9688   -0.0511 H         1 <0>         0.1757
     47 H18         8.7828   -2.4121   -0.0138 H         1 <0>         0.2051
@<TRIPOS>BOND
     1    1    2 1
     2    1   30 1
     3    1   31 1
     4    1   32 1
     5    2    6 1
     6    2    3 2
     7    3    4 1
     8    3   33 1
     9    4    5 2
    10    4   34 1
    11    5    6 1
    12    5    7 1
    13    7   12 ar
    14    7    8 ar
    15    8    9 ar
    16    9   10 ar
    17    9   25 1
    18   10   11 ar
    19   10   35 1
    20   11   12 ar
    21   11   13 1
    22   13   14 am
    23   13   36 1
    24   14   15 2
    25   14   16 1
    26   16   17 1
    27   16   37 1
    28   16   38 1
    29   17   22 ar
    30   17   18 ar
    31   18   19 ar
    32   18   39 1
    33   19   20 ar
    34   19   40 1
    35   20   21 ar
    36   20   23 1
    37   21   22 ar
    38   21   41 1
    39   22   42 1
    40   23   24 1
    41   24   43 1
    42   24   44 1
    43   24   45 1
    44   25   29 1
    45   25   26 2
    46   26   27 1
    47   27   28 2
    48   27   46 1
    49   28   29 1
    50   28   47 1
