@<TRIPOS>MOLECULE
CHEMBL181981
   31    34     0     0     0
SMALL
USER_CHARGES

@<TRIPOS>ATOM
      1 C1         -0.0167    1.3791    0.0096 C.ar      1 <0>        -0.0983
      2 C2          1.1686    2.0924    0.0021 C.ar      1 <0>        -0.1263
      3 C3          2.3774    1.4270   -0.0129 C.ar      1 <0>        -0.0695
      4 C4          2.4026    0.0331   -0.0206 C.ar      1 <0>        -0.0639
      5 C5          1.2048   -0.6804   -0.0130 C.ar      1 <0>        -0.0802
      6 C6          0.0021   -0.0041    0.0020 C.ar      1 <0>        -0.1229
      7 C7          3.6978   -0.6876   -0.0373 C.ar      1 <0>         0.2925
      8 C8          3.8458   -1.9040    0.6416 C.ar      1 <0>        -0.0737
      9 C9          5.0951   -2.5386    0.5885 C.ar      1 <0>         0.1935
     10 C10         4.9473   -3.7719    1.3794 C.ar      1 <0>        -0.1357
     11 C11         5.8032   -4.8186    1.7105 C.ar      1 <0>        -0.0338
     12 C12         5.3440   -5.8564    2.4927 C.ar      1 <0>        -0.1450
     13 C13         4.0347   -5.8589    2.9486 C.ar      1 <0>        -0.0630
     14 C14         3.1777   -4.8283    2.6270 C.ar      1 <0>        -0.1216
     15 C15         3.6219   -3.7722    1.8396 C.ar      1 <0>         0.1073
     16 O1          3.0092   -2.6575    1.3837 O.3       1 <0>        -0.1804
     17 N1          6.0873   -1.9757   -0.0928 N.ar      1 <0>        -0.5369
     18 C16         5.9045   -0.8241   -0.7195 C.ar      1 <0>         0.5658
     19 N2          4.7397   -0.1934   -0.7022 N.ar      1 <0>        -0.5313
     20 N3          6.9615   -0.2651   -1.4211 N.pl3     1 <0>        -0.8168
     21 H1         -0.9603    1.9042    0.0260 H         1 <0>         0.1276
     22 H2          1.1478    3.1722    0.0077 H         1 <0>         0.1296
     23 H3          3.3021    1.9849   -0.0191 H         1 <0>         0.1313
     24 H4          1.2183   -1.7603   -0.0193 H         1 <0>         0.1278
     25 H5         -0.9264   -0.5557    0.0082 H         1 <0>         0.1299
     26 H6          6.8232   -4.8176    1.3555 H         1 <0>         0.1363
     27 H7          6.0058   -6.6700    2.7509 H         1 <0>         0.1381
     28 H8          3.6830   -6.6759    3.5611 H         1 <0>         0.1431
     29 H9          2.1596   -4.8413    2.9872 H         1 <0>         0.1410
     30 H10         7.8192   -0.7174   -1.4475 H         1 <0>         0.4174
     31 H11         6.8434    0.5783   -1.8855 H         1 <0>         0.4179
@<TRIPOS>BOND
     1    1    6 ar
     2    1    2 ar
     3    1   21 1
     4    2    3 ar
     5    2   22 1
     6    3    4 ar
     7    3   23 1
     8    4    5 ar
     9    4    7 1
    10    5    6 ar
    11    5   24 1
    12    6   25 1
    13    7   19 ar
    14    7    8 ar
    15    8   16 1
    16    8    9 ar
    17    9   10 1
    18    9   17 ar
    19   10   15 ar
    20   10   11 ar
    21   11   12 ar
    22   11   26 1
    23   12   13 ar
    24   12   27 1
    25   13   14 ar
    26   13   28 1
    27   14   15 ar
    28   14   29 1
    29   15   16 1
    30   17   18 ar
    31   18   19 ar
    32   18   20 1
    33   20   30 1
    34   20   31 1
