@<TRIPOS>MOLECULE
CHEMBL124788
   38    41     0     0     0
SMALL
USER_CHARGES

@<TRIPOS>ATOM
      1 C1         -0.0187    1.5258    0.0104 C.3       1 <0>        -0.1526
      2 C2          0.0021   -0.0041    0.0020 C.3       1 <0>        -0.1273
      3 C3          0.7182   -0.4975   -1.2568 C.3       1 <0>        -0.1039
      4 C4          0.7390   -2.0273   -1.2652 C.3       1 <0>        -0.0639
      5 C5          1.4443   -2.5133   -2.5051 C.2       1 <0>         0.4192
      6 N1          1.9145   -1.6344   -3.3429 N.2       1 <0>        -0.4693
      7 C6          2.5526   -1.9852   -4.4655 C.2       1 <0>         0.2300
      8 C7          2.7311   -3.3394   -4.7675 C.2       1 <0>         0.0252
      9 C8          2.2025   -4.3219   -3.8247 C.2       1 <0>         0.3571
     10 N2          1.5700   -3.8512   -2.7028 N.pl3     1 <0>        -0.3391
     11 N3          1.1722   -4.9816   -1.9775 N.2       1 <0>        -0.2956
     12 C9          1.5685   -6.0387   -2.6597 C.2       1 <0>         0.3018
     13 N4          2.1820   -5.6394   -3.7772 N.2       1 <0>        -0.4823
     14 C10         1.3554   -7.4504   -2.2553 C.ar      1 <0>        -0.0207
     15 C11         0.6833   -7.7447   -1.0707 C.ar      1 <0>        -0.0665
     16 C12         0.4878   -9.0593   -0.6992 C.ar      1 <0>        -0.1221
     17 C13         0.9575  -10.0849   -1.5002 C.ar      1 <0>        -0.0843
     18 C14         1.6256   -9.7999   -2.6767 C.ar      1 <0>        -0.1186
     19 C15         1.8218   -8.4875   -3.0620 C.ar      1 <0>         0.0018
     20 Cl1         2.6539   -8.1307   -4.5431 Cl        1 <0>        -0.0225
     21 N5          3.3957   -3.4074   -5.9408 N.2       1 <0>        -0.4422
     22 C16         3.6341   -2.2016   -6.3737 C.2       1 <0>         0.2496
     23 N6          3.1325   -1.2895   -5.4967 N.pl3     1 <0>        -0.5523
     24 H1          3.1765   -0.3245   -5.5846 H         1 <0>         0.4363
     25 H2          1.0039    1.9031    0.0027 H         1 <0>         0.0544
     26 H3         -0.5459    1.8868   -0.8726 H         1 <0>         0.0544
     27 H4         -0.5289    1.8773    0.9072 H         1 <0>         0.0551
     28 H5          0.5293   -0.3651    0.8851 H         1 <0>         0.0638
     29 H6         -1.0205   -0.3814    0.0098 H         1 <0>         0.0638
     30 H7          0.1910   -0.1364   -2.1398 H         1 <0>         0.0732
     31 H8          1.7408   -0.1202   -1.2645 H         1 <0>         0.0733
     32 H9          1.2661   -2.3884   -0.3821 H         1 <0>         0.1050
     33 H10        -0.2836   -2.4046   -1.2575 H         1 <0>         0.1049
     34 H11         0.3163   -6.9453   -0.4441 H         1 <0>         0.1418
     35 H12        -0.0327   -9.2880    0.2190 H         1 <0>         0.1376
     36 H13         0.8020  -11.1121   -1.2052 H         1 <0>         0.1380
     37 H14         1.9905  -10.6044   -3.2980 H         1 <0>         0.1415
     38 H15         4.1521   -1.9619   -7.2906 H         1 <0>         0.2354
@<TRIPOS>BOND
     1    1    2 1
     2    1   25 1
     3    1   26 1
     4    1   27 1
     5    2    3 1
     6    2   28 1
     7    2   29 1
     8    3    4 1
     9    3   30 1
    10    3   31 1
    11    4    5 1
    12    4   32 1
    13    4   33 1
    14    5   10 1
    15    5    6 2
    16    6    7 1
    17    7   23 1
    18    7    8 2
    19    8    9 1
    20    8   21 1
    21    9   13 2
    22    9   10 1
    23   10   11 1
    24   11   12 2
    25   12   13 1
    26   12   14 1
    27   14   19 ar
    28   14   15 ar
    29   15   16 ar
    30   15   34 1
    31   16   17 ar
    32   16   35 1
    33   17   18 ar
    34   17   36 1
    35   18   19 ar
    36   18   37 1
    37   19   20 1
    38   21   22 2
    39   22   23 1
    40   22   38 1
    41   23   24 1
