@<TRIPOS>MOLECULE
CHEMBL360124
   36    39     0     0     0
SMALL
USER_CHARGES

@<TRIPOS>ATOM
      1 C1         -0.0184    1.5028    0.0103 C.3       1 <0>        -0.1154
      2 C2          0.0021   -0.0041    0.0020 C.ar      1 <0>        -0.0930
      3 C3          0.0057   -0.6864   -1.2015 C.ar      1 <0>        -0.0939
      4 C4          0.0249   -2.0698   -1.2145 C.ar      1 <0>        -0.1023
      5 C5          0.0400   -2.7713   -0.0279 C.ar      1 <0>        -0.0727
      6 C6          0.0365   -2.0937    1.1893 C.ar      1 <0>        -0.0658
      7 C7          0.0228   -0.6971    1.1941 C.ar      1 <0>        -0.0658
      8 C8          0.0555   -3.0747    2.2997 C.ar      1 <0>         0.2575
      9 C9          0.0708   -4.3654    1.7768 C.ar      1 <0>        -0.2496
     10 C10         0.0905   -5.4479    2.6493 C.ar      1 <0>         0.2828
     11 N1          0.0940   -5.2135    3.9624 N.ar      1 <0>        -0.5597
     12 C11         0.0790   -3.9741    4.4272 C.ar      1 <0>         0.5762
     13 N2          0.0598   -2.9215    3.6243 N.ar      1 <0>        -0.5626
     14 N3          0.0828   -3.7721    5.7967 N.pl3     1 <0>        -0.8204
     15 C12         0.1068   -6.8369    2.1296 C.ar      1 <0>        -0.0558
     16 C13        -0.5820   -7.1545    0.9603 C.ar      1 <0>        -0.0931
     17 C14        -0.5629   -8.4485    0.4811 C.ar      1 <0>        -0.1225
     18 C15         0.1376   -9.4297    1.1594 C.ar      1 <0>        -0.1027
     19 C16         0.8230   -9.1204    2.3204 C.ar      1 <0>        -0.1245
     20 C17         0.8157   -7.8284    2.8057 C.ar      1 <0>        -0.0739
     21 C18         0.0620   -4.2502    0.2752 C.3       1 <0>        -0.0253
     22 H1          1.0042    1.8801    0.0026 H         1 <0>         0.0729
     23 H2         -0.5455    1.8639   -0.8728 H         1 <0>         0.0696
     24 H3         -0.5286    1.8543    0.9071 H         1 <0>         0.0684
     25 H4         -0.0068   -0.1384   -2.1321 H         1 <0>         0.1317
     26 H5          0.0277   -2.6005   -2.1551 H         1 <0>         0.1317
     27 H6          0.0240   -0.1601    2.1311 H         1 <0>         0.1293
     28 H7          0.0962   -4.5323    6.3990 H         1 <0>         0.4161
     29 H8          0.0720   -2.8704    6.1540 H         1 <0>         0.4155
     30 H9         -1.1298   -6.3893    0.4304 H         1 <0>         0.1287
     31 H10        -1.0963   -8.6957   -0.4249 H         1 <0>         0.1290
     32 H11         0.1492  -10.4413    0.7812 H         1 <0>         0.1262
     33 H12         1.3680   -9.8905    2.8460 H         1 <0>         0.1278
     34 H13         1.3545   -7.5871    3.7100 H         1 <0>         0.1293
     35 H14        -0.8273   -4.7304   -0.1330 H         1 <0>         0.1024
     36 H15         0.9602   -4.7056   -0.1417 H         1 <0>         0.1039
@<TRIPOS>BOND
     1    1    2 1
     2    1   22 1
     3    1   23 1
     4    1   24 1
     5    2    7 ar
     6    2    3 ar
     7    3    4 ar
     8    3   25 1
     9    4    5 ar
    10    4   26 1
    11    5   21 1
    12    5    6 ar
    13    6    7 ar
    14    6    8 1
    15    7   27 1
    16    8   13 ar
    17    8    9 ar
    18    9   10 ar
    19    9   21 1
    20   10   11 ar
    21   10   15 1
    22   11   12 ar
    23   12   13 ar
    24   12   14 1
    25   14   28 1
    26   14   29 1
    27   15   20 ar
    28   15   16 ar
    29   16   17 ar
    30   16   30 1
    31   17   18 ar
    32   17   31 1
    33   18   19 ar
    34   18   32 1
    35   19   20 ar
    36   19   33 1
    37   20   34 1
    38   21   35 1
    39   21   36 1
