@<TRIPOS>MOLECULE
CHEMBL601514
   81    86     0     0     0
SMALL
USER_CHARGES

@<TRIPOS>ATOM
      1 C1         -2.7925    1.8751    2.8475 C.3       1 <0>        -0.1391
      2 C2         -2.5008    0.4465    2.3840 C.3       1 <0>        -0.1438
      3 C3         -3.7192   -0.4122    2.6057 C.2       1 <0>         0.5088
      4 O1         -4.7221    0.0709    3.0870 O.2       1 <0>        -0.5168
      5 N1         -3.6944   -1.7170    2.2690 N.am      1 <0>        -0.7304
      6 C4         -4.8788   -2.5518    2.4845 C.3       1 <0>         0.1542
      7 H1         -5.7876   -1.9706    2.3283 H         1 <0>         0.1136
      8 C5         -4.8536   -3.7818    1.5436 C.3       1 <0>        -0.1340
      9 C6         -5.7570   -4.7981    2.2852 C.3       1 <0>         0.1531
     10 H2         -6.8087   -4.5810    2.0985 H         1 <0>         0.1293
     11 C7         -5.4187   -4.5879    3.7756 C.3       1 <0>         0.0617
     12 H3         -4.6684   -5.3117    4.0939 H         1 <0>         0.0739
     13 C8         -4.8621   -3.1568    3.9035 C.3       1 <0>         0.0614
     14 H4         -3.8414   -3.1863    4.2848 H         1 <0>         0.0717
     15 O2         -5.6887   -2.3830    4.7753 O.3       1 <0>        -0.5310
     16 O3         -6.5988   -4.7254    4.5696 O.3       1 <0>        -0.5399
     17 N2         -5.4361   -6.1665    1.8719 N.pl3     1 <0>        -0.4680
     18 C9         -4.2229   -6.7806    1.9853 C.2       1 <0>         0.2226
     19 N3         -4.2940   -7.9934    1.5201 N.2       1 <0>        -0.4445
     20 C10        -5.5534   -8.2347    1.0796 C.ar      1 <0>        -0.1548
     21 C11        -6.3016   -7.0675    1.3053 C.ar      1 <0>         0.3570
     22 N4         -7.5855   -7.0446    0.9618 N.ar      1 <0>        -0.6126
     23 C12        -8.1555   -8.1071    0.4167 C.ar      1 <0>         0.6321
     24 N5         -7.4874   -9.2305    0.1885 N.ar      1 <0>        -0.6205
     25 C13        -6.1990   -9.3373    0.4939 C.ar      1 <0>         0.5438
     26 N6         -5.5109  -10.5134    0.2537 N.pl3     1 <0>        -0.6880
     27 C14        -6.1993  -11.6530   -0.3576 C.3       1 <0>         0.1401
     28 C15        -5.2193  -12.8178   -0.5120 C.3       1 <0>        -0.0205
     29 C16        -5.9549  -14.0284   -1.0262 C.ar      1 <0>        -0.0717
     30 C17        -5.8507  -15.2351   -0.3599 C.ar      1 <0>        -0.1102
     31 C18        -6.5255  -16.3455   -0.8316 C.ar      1 <0>        -0.1167
     32 C19        -7.3048  -16.2492   -1.9693 C.ar      1 <0>        -0.1182
     33 C20        -7.4097  -15.0423   -2.6350 C.ar      1 <0>        -0.1157
     34 C21        -6.7384  -13.9308   -2.1609 C.ar      1 <0>        -0.1106
     35 C22        -4.1357  -12.4366   -1.4875 C.ar      1 <0>        -0.0764
     36 C23        -4.4707  -11.9399   -2.7333 C.ar      1 <0>        -0.1080
     37 C24        -3.4767  -11.5903   -3.6281 C.ar      1 <0>        -0.1172
     38 C25        -2.1478  -11.7368   -3.2769 C.ar      1 <0>        -0.1196
     39 C26        -1.8128  -12.2326   -2.0308 C.ar      1 <0>        -0.1155
     40 C27        -2.8067  -12.5782   -1.1344 C.ar      1 <0>        -0.1130
     41 N7         -9.4959   -8.0445    0.0728 N.pl3     1 <0>        -0.6977
     42 C28       -10.1519   -9.2062   -0.5323 C.3       1 <0>         0.1477
     43 C29       -11.6191   -8.8750   -0.8125 C.3       1 <0>        -0.0564
     44 C30       -12.2939  -10.0701   -1.4349 C.2       1 <0>        -0.0234
     45 C31       -12.8410  -11.1133   -0.7822 C.2       1 <0>        -0.0135
     46 N8        -13.3369  -11.9606   -1.6962 N.2       1 <0>        -0.4926
     47 H5        -12.1896   -9.7250   -3.4989 H         1 <0>         0.4192
     48 C32       -13.1180  -11.4820   -2.8903 C.2       1 <0>         0.1880
     49 N9        -12.4740  -10.3009   -2.7720 N.pl3     1 <0>        -0.5664
     50 H6         -1.9113    2.4962    2.6872 H         1 <0>         0.0624
     51 H7         -3.6297    2.2782    2.2776 H         1 <0>         0.0621
     52 H8         -3.0445    1.8687    3.9080 H         1 <0>         0.0621
     53 H9         -2.2489    0.4529    1.3235 H         1 <0>         0.0935
     54 H10        -1.6636    0.0434    2.9539 H         1 <0>         0.0927
     55 H11        -2.8922   -2.1034    1.8841 H         1 <0>         0.4016
     56 H12        -5.2730   -3.5314    0.5691 H         1 <0>         0.0978
     57 H13        -3.8399   -4.1691    1.4411 H         1 <0>         0.0902
     58 H14        -5.7197   -2.7131    5.6837 H         1 <0>         0.3730
     59 H15        -6.4513   -4.6040    5.5176 H         1 <0>         0.3797
     60 H16        -3.3348   -6.3268    2.3996 H         1 <0>         0.2133
     61 H17        -4.5727  -10.5834    0.4901 H         1 <0>         0.4190
     62 H18        -7.0302  -11.9591    0.2780 H         1 <0>         0.0768
     63 H19        -6.5787  -11.3650   -1.3380 H         1 <0>         0.0728
     64 H20        -4.7728  -13.0477    0.4554 H         1 <0>         0.0938
     65 H21        -5.2419  -15.3104    0.5289 H         1 <0>         0.1219
     66 H22        -6.4435  -17.2885   -0.3115 H         1 <0>         0.1230
     67 H23        -7.8314  -17.1169   -2.3382 H         1 <0>         0.1220
     68 H24        -8.0183  -14.9671   -3.5240 H         1 <0>         0.1218
     69 H25        -6.8233  -12.9869   -2.6789 H         1 <0>         0.1206
     70 H26        -5.5089  -11.8255   -3.0077 H         1 <0>         0.1194
     71 H27        -3.7384  -11.2029   -4.6017 H         1 <0>         0.1202
     72 H28        -1.3712  -11.4643   -3.9763 H         1 <0>         0.1206
     73 H29        -0.7745  -12.3474   -1.7565 H         1 <0>         0.1224
     74 H30        -2.5450  -12.9621   -0.1594 H         1 <0>         0.1218
     75 H31       -10.0001   -7.2314    0.2326 H         1 <0>         0.4144
     76 H32        -9.6518   -9.4600   -1.4670 H         1 <0>         0.0648
     77 H33       -10.0948  -10.0529    0.1518 H         1 <0>         0.0737
     78 H34       -12.1192   -8.6212    0.1222 H         1 <0>         0.0960
     79 H35       -11.6762   -8.0283   -1.4965 H         1 <0>         0.0776
     80 H36       -12.8745  -11.2448    0.2892 H         1 <0>         0.1693
     81 H37       -13.4071  -11.9510   -3.8192 H         1 <0>         0.2082
@<TRIPOS>BOND
     1    1    2 1
     2    1   50 1
     3    1   51 1
     4    1   52 1
     5    2    3 1
     6    2   53 1
     7    2   54 1
     8    3    4 2
     9    3    5 am
    10    5    6 1
    11    5   55 1
    12    6    7 1
    13    6   13 1
    14    6    8 1
    15    8    9 1
    16    8   56 1
    17    8   57 1
    18    9   10 1
    19    9   11 1
    20    9   17 1
    21   11   12 1
    22   11   13 1
    23   11   16 1
    24   13   14 1
    25   13   15 1
    26   15   58 1
    27   16   59 1
    28   17   21 1
    29   17   18 1
    30   18   19 2
    31   18   60 1
    32   19   20 1
    33   20   25 ar
    34   20   21 ar
    35   21   22 ar
    36   22   23 ar
    37   23   24 ar
    38   23   41 1
    39   24   25 ar
    40   25   26 1
    41   26   27 1
    42   26   61 1
    43   27   28 1
    44   27   62 1
    45   27   63 1
    46   28   29 1
    47   28   35 1
    48   28   64 1
    49   29   34 ar
    50   29   30 ar
    51   30   31 ar
    52   30   65 1
    53   31   32 ar
    54   31   66 1
    55   32   33 ar
    56   32   67 1
    57   33   34 ar
    58   33   68 1
    59   34   69 1
    60   35   40 ar
    61   35   36 ar
    62   36   37 ar
    63   36   70 1
    64   37   38 ar
    65   37   71 1
    66   38   39 ar
    67   38   72 1
    68   39   40 ar
    69   39   73 1
    70   40   74 1
    71   41   42 1
    72   41   75 1
    73   42   43 1
    74   42   76 1
    75   42   77 1
    76   43   78 1
    77   43   79 1
    78   43   44 1
    79   44   45 2
    80   44   49 1
    81   45   46 1
    82   45   80 1
    83   46   48 2
    84   47   49 1
    85   48   81 1
    86   48   49 1
