@<TRIPOS>MOLECULE
CHEMBL1088236
   52    56     0     0     0
SMALL
USER_CHARGES

@<TRIPOS>ATOM
      1 C1         -0.0167    1.3793    0.0096 C.ar      1 <0>        -0.0933
      2 C2          1.1685    2.0929    0.0021 C.ar      1 <0>        -0.1341
      3 C3          2.3774    1.4279   -0.0130 C.ar      1 <0>        -0.0662
      4 C4          2.4029    0.0333   -0.0207 C.ar      1 <0>        -0.0803
      5 C5          1.2046   -0.6805   -0.0131 C.ar      1 <0>        -0.0597
      6 C6          0.0021   -0.0041    0.0020 C.ar      1 <0>        -0.1272
      7 C7          3.6972   -0.6866   -0.0375 C.ar      1 <0>         0.3417
      8 C8          3.8485   -1.9053    0.6416 C.ar      1 <0>        -0.3484
      9 C9          5.0995   -2.5526    0.5963 C.ar      1 <0>         0.3084
     10 N1          6.0850   -1.9878   -0.0854 N.ar      1 <0>        -0.5616
     11 C10         5.9016   -0.8324   -0.7162 C.ar      1 <0>         0.6028
     12 N2          4.7422   -0.1938   -0.7026 N.ar      1 <0>        -0.5705
     13 N3          6.9560   -0.2811   -1.4137 N.pl3     1 <0>        -0.8042
     14 C11         5.0091   -3.8087    1.3828 C.ar      1 <0>        -0.0385
     15 C12         5.9398   -4.8012    1.6568 C.ar      1 <0>        -0.0431
     16 C13         5.5832   -5.8911    2.4363 C.ar      1 <0>        -0.0610
     17 C14         4.3040   -5.9981    2.9448 C.ar      1 <0>        -0.0979
     18 C15         3.3631   -5.0152    2.6796 C.ar      1 <0>        -0.0492
     19 C16         3.7079   -3.9189    1.9009 C.ar      1 <0>        -0.1437
     20 C17         2.9384   -2.7304    1.4536 C.2       1 <0>         0.4640
     21 O1          1.7764   -2.4848    1.7094 O.2       1 <0>        -0.4135
     22 C18         6.5980   -6.9658    2.7299 C.3       1 <0>         0.1082
     23 N4          7.3232   -6.6308    3.9628 N.3       1 <0>        -0.5285
     24 N5          8.3131   -7.6482    4.2778 N.3       1 <0>        -0.3765
     25 C19         7.9891   -8.3246    5.5403 C.3       1 <0>         0.0296
     26 C20         8.9653   -9.4814    5.7659 C.3       1 <0>        -0.1132
     27 C21        10.3950   -8.9350    5.8102 C.3       1 <0>        -0.1250
     28 C22        10.6904   -8.1938    4.5034 C.3       1 <0>        -0.1180
     29 C23         9.6642   -7.0743    4.3143 C.3       1 <0>         0.0683
     30 H1         -0.9604    1.9042    0.0260 H         1 <0>         0.1264
     31 H2          1.1475    3.1726    0.0078 H         1 <0>         0.1281
     32 H3          3.3020    1.9860   -0.0192 H         1 <0>         0.1292
     33 H4          1.2180   -1.7604   -0.0194 H         1 <0>         0.1349
     34 H5         -0.9264   -0.5556    0.0083 H         1 <0>         0.1288
     35 H6          7.8124   -0.7360   -1.4376 H         1 <0>         0.4198
     36 H7          6.8412    0.5615   -1.8803 H         1 <0>         0.4207
     37 H8          6.9422   -4.7247    1.2623 H         1 <0>         0.1413
     38 H9          4.0354   -6.8506    3.5509 H         1 <0>         0.1371
     39 H10         2.3631   -5.1023    3.0782 H         1 <0>         0.1414
     40 H11         6.0891   -7.9214    2.8559 H         1 <0>         0.0523
     41 H12         7.3029   -7.0360    1.9014 H         1 <0>         0.0925
     42 H13         6.6849   -6.4967    4.7326 H         1 <0>         0.3335
     43 H14         8.0703   -7.6150    6.3637 H         1 <0>         0.0410
     44 H15         6.9713   -8.7120    5.4940 H         1 <0>         0.0732
     45 H16         8.7343   -9.9734    6.7107 H         1 <0>         0.0700
     46 H17         8.8748  -10.1983    4.9499 H         1 <0>         0.0726
     47 H18        10.4964   -8.2475    6.6499 H         1 <0>         0.0602
     48 H19        11.0970   -9.7606    5.9274 H         1 <0>         0.0671
     49 H20        11.6920   -7.7659    4.5461 H         1 <0>         0.0718
     50 H21        10.6271   -8.8905    3.6675 H         1 <0>         0.0717
     51 H22         9.8631   -6.5537    3.3776 H         1 <0>         0.0805
     52 H23         9.7376   -6.3706    5.1435 H         1 <0>         0.0369
@<TRIPOS>BOND
     1    1    6 ar
     2    1    2 ar
     3    1   30 1
     4    2    3 ar
     5    2   31 1
     6    3    4 ar
     7    3   32 1
     8    4    5 ar
     9    4    7 1
    10    5    6 ar
    11    5   33 1
    12    6   34 1
    13    7   12 ar
    14    7    8 ar
    15    8   20 1
    16    8    9 ar
    17    9   10 ar
    18    9   14 1
    19   10   11 ar
    20   11   12 ar
    21   11   13 1
    22   13   35 1
    23   13   36 1
    24   14   19 ar
    25   14   15 ar
    26   15   16 ar
    27   15   37 1
    28   16   17 ar
    29   16   22 1
    30   17   18 ar
    31   17   38 1
    32   18   19 ar
    33   18   39 1
    34   19   20 1
    35   20   21 2
    36   22   23 1
    37   22   40 1
    38   22   41 1
    39   23   24 1
    40   23   42 1
    41   24   29 1
    42   24   25 1
    43   25   26 1
    44   25   43 1
    45   25   44 1
    46   26   27 1
    47   26   45 1
    48   26   46 1
    49   27   28 1
    50   27   47 1
    51   27   48 1
    52   28   29 1
    53   28   49 1
    54   28   50 1
    55   29   51 1
    56   29   52 1
