@<TRIPOS>MOLECULE
CHEMBL521242
   54    58     0     0     0
SMALL
USER_CHARGES

@<TRIPOS>ATOM
      1 C1         -0.0162    1.3434    0.0094 C.2       1 <0>        -0.2194
      2 C2          1.3252    1.7744   -0.0011 C.2       1 <0>        -0.1170
      3 C3          2.0961    0.6548   -0.0144 C.2       1 <0>         0.0222
      4 O1          1.2797   -0.4166   -0.0124 O.3       1 <0>        -0.1606
      5 C4          0.0021   -0.0041    0.0020 C.2       1 <0>         0.0015
      6 C5          3.5736    0.6193   -0.0292 C.2       1 <0>         0.3666
      7 N1          4.3729    1.6920   -0.0257 N.2       1 <0>        -0.5113
      8 C6          5.6387    1.3016   -0.0416 C.2       1 <0>         0.3584
      9 C7          6.8653    1.9860   -0.0465 C.2       1 <0>        -0.1848
     10 C8          8.0329    1.2457   -0.0655 C.2       1 <0>         0.1687
     11 N2          7.9812   -0.0925   -0.0788 N.2       1 <0>        -0.5756
     12 C9          6.8369   -0.7390   -0.0743 C.2       1 <0>         0.6711
     13 N3          5.6511   -0.0706   -0.0558 N.pl3     1 <0>        -0.3636
     14 N4          4.3105   -0.4761   -0.0421 N.2       1 <0>        -0.3136
     15 N5          6.8375   -2.1137   -0.0884 N.pl3     1 <0>        -0.8024
     16 S1          9.5929    2.0649   -0.0729 S.3       1 <0>         0.0309
     17 C10        10.7996    0.7108   -0.0984 C.3       1 <0>        -0.1619
     18 C11        12.2158    1.2898   -0.1067 C.3       1 <0>         0.0064
     19 N6         13.1931    0.1932   -0.1274 N.4       1 <0>        -0.3761
     20 C12        13.0856   -0.5792    1.1167 C.3       1 <0>        -0.0313
     21 C13        14.0228   -1.7895    1.0479 C.3       1 <0>         0.1208
     22 N7         15.3807   -1.3111    0.7456 N.pl3     1 <0>        -0.6721
     23 C14        15.5559   -0.3961   -0.3929 C.3       1 <0>         0.1194
     24 C15        14.5463    0.7484   -0.2560 C.3       1 <0>        -0.0237
     25 C16        16.4751   -1.7149    1.5196 C.ar      1 <0>         0.0998
     26 C17        17.1908   -2.8521    1.1717 C.ar      1 <0>        -0.0568
     27 C18        18.2706   -3.2491    1.9369 C.ar      1 <0>        -0.1538
     28 C19        18.6396   -2.5142    3.0508 C.ar      1 <0>         0.1469
     29 C20        17.9278   -1.3794    3.4013 C.ar      1 <0>        -0.1867
     30 C21        16.8504   -0.9741    2.6349 C.ar      1 <0>         0.1278
     31 F1         16.1596    0.1366    2.9729 F         1 <0>        -0.1295
     32 F2         19.6956   -2.9052    3.7972 F         1 <0>        -0.1205
     33 H1         -0.8931    1.9736    0.0252 H         1 <0>         0.1626
     34 H2          1.6736    2.7966    0.0006 H         1 <0>         0.1644
     35 H3         -0.8667   -0.6456    0.0072 H         1 <0>         0.2164
     36 H4          6.8957    3.0655   -0.0361 H         1 <0>         0.1722
     37 H5          7.6777   -2.5983   -0.1016 H         1 <0>         0.4278
     38 H6          5.9977   -2.5992   -0.0852 H         1 <0>         0.4294
     39 H7         10.6666    0.0889    0.7868 H         1 <0>         0.1165
     40 H8         10.6489    0.1066   -0.9930 H         1 <0>         0.1175
     41 H9         12.3488    1.9118   -0.9919 H         1 <0>         0.1435
     42 H10        12.3666    1.8941    0.7879 H         1 <0>         0.1408
     43 H11        13.3665    0.0504    1.9609 H         1 <0>         0.1350
     44 H12        12.0587   -0.9216    1.2444 H         1 <0>         0.1387
     45 H13        14.0222   -2.3083    2.0065 H         1 <0>         0.1167
     46 H14        13.6894   -2.4666    0.2615 H         1 <0>         0.0838
     47 H15        16.5689    0.0064   -0.3868 H         1 <0>         0.1180
     48 H16        15.3774   -0.9325   -1.3248 H         1 <0>         0.0844
     49 H17        14.5958    1.3843   -1.1399 H         1 <0>         0.1412
     50 H18        14.7831    1.3379    0.6297 H         1 <0>         0.1342
     51 H19        16.9035   -3.4266    0.3035 H         1 <0>         0.1472
     52 H20        18.8273   -4.1340    1.6660 H         1 <0>         0.1515
     53 H21        18.2170   -0.8080    4.2710 H         1 <0>         0.1553
     54 H22        13.0025   -0.4107   -0.9129 H         1 <0>         0.4233
@<TRIPOS>BOND
     1    1    5 2
     2    1    2 1
     3    1   33 1
     4    2    3 2
     5    2   34 1
     6    3    4 1
     7    3    6 1
     8    4    5 1
     9    5   35 1
    10    6   14 2
    11    6    7 1
    12    7    8 2
    13    8   13 1
    14    8    9 1
    15    9   10 2
    16    9   36 1
    17   10   11 1
    18   10   16 1
    19   11   12 2
    20   12   13 1
    21   12   15 1
    22   13   14 1
    23   15   37 1
    24   15   38 1
    25   16   17 1
    26   17   18 1
    27   17   39 1
    28   17   40 1
    29   18   19 1
    30   18   41 1
    31   18   42 1
    32   19   24 1
    33   19   20 1
    34   19   54 1
    35   20   21 1
    36   20   43 1
    37   20   44 1
    38   21   22 1
    39   21   45 1
    40   21   46 1
    41   22   23 1
    42   22   25 1
    43   23   24 1
    44   23   47 1
    45   23   48 1
    46   24   49 1
    47   24   50 1
    48   25   30 ar
    49   25   26 ar
    50   26   27 ar
    51   26   51 1
    52   27   28 ar
    53   27   52 1
    54   28   29 ar
    55   28   32 1
    56   29   30 ar
    57   29   53 1
    58   30   31 1
