@<TRIPOS>MOLECULE
CHEMBL561163
   38    40     0     0     0
SMALL
USER_CHARGES

@<TRIPOS>ATOM
      1 C1         -0.0166    1.3737    0.0096 C.ar      1 <0>        -0.1579
      2 C2          1.1699    2.0890    0.0021 C.ar      1 <0>        -0.0708
      3 C3          2.3832    1.4297   -0.0135 C.ar      1 <0>        -0.2120
      4 C4          2.4214    0.0437   -0.0213 C.ar      1 <0>         0.1509
      5 C5          1.2230   -0.6842   -0.0133 C.ar      1 <0>        -0.0762
      6 C6          0.0021   -0.0041    0.0020 C.ar      1 <0>        -0.0378
      7 C7          1.2507   -2.1577   -0.0220 C.2       1 <0>         0.4600
      8 O1          0.0937   -2.8550   -0.0143 O.3       1 <0>        -0.6255
      9 N1          2.4000   -2.7927   -0.0373 N.2       1 <0>        -0.6275
     10 C8          2.4256   -4.1554   -0.0453 C.ar      1 <0>         0.4857
     11 C9          3.6447   -4.8427   -0.0557 C.ar      1 <0>        -0.2124
     12 C10         3.6170   -6.2377   -0.0632 C.ar      1 <0>         0.3375
     13 N2          2.4364   -6.8635   -0.0601 N.ar      1 <0>        -0.5973
     14 C11         1.3041   -6.1786   -0.0502 C.ar      1 <0>         0.5923
     15 N3          1.2873   -4.8548   -0.0378 N.ar      1 <0>        -0.5535
     16 N4          0.1027   -6.8661   -0.0474 N.pl3     1 <0>        -0.8194
     17 C12         4.8740   -7.0111   -0.0747 C.2       1 <0>         0.0053
     18 C13         5.0834   -8.2043    0.5450 C.2       1 <0>        -0.1407
     19 C14         6.4134   -8.5752    0.2714 C.2       1 <0>        -0.2231
     20 C15         6.9461   -7.6010   -0.4939 C.2       1 <0>        -0.0152
     21 O2          6.0121   -6.6613   -0.7056 O.3       1 <0>        -0.1591
     22 N5          4.9303   -4.1087   -0.0592 N.pl3     1 <0>         0.0786
     23 O3          5.4612   -3.8143    0.9863 O.2       1 <0>        -0.1676
     24 O4          5.4494   -3.8036   -1.1077 O.3       1 <0>        -0.1532
     25 O5          3.6129   -0.6052   -0.0371 O.3       1 <0>        -0.2536
     26 C16         4.7916    0.2027   -0.0449 C.3       1 <0>         0.5902
     27 F1          4.8152    1.0041    1.1015 F         1 <0>        -0.1750
     28 F2          5.9218   -0.6216   -0.0610 F         1 <0>        -0.1222
     29 F3          4.7916    1.0164   -1.1829 F         1 <0>        -0.1750
     30 H1         -0.9605    1.8984    0.0260 H         1 <0>         0.1286
     31 H2          1.1457    3.1687    0.0082 H         1 <0>         0.1284
     32 H3          3.3038    1.9945   -0.0200 H         1 <0>         0.1324
     33 H4         -0.9253   -0.5576    0.0083 H         1 <0>         0.1440
     34 H5          0.0989   -7.8361   -0.0527 H         1 <0>         0.4068
     35 H6         -0.7355   -6.3779   -0.0402 H         1 <0>         0.4159
     36 H7          4.3676   -8.7593    1.1333 H         1 <0>         0.1558
     37 H8          6.9129   -9.4708    0.6104 H         1 <0>         0.1538
     38 H9          7.9560   -7.5822   -0.8763 H         1 <0>         0.2085
@<TRIPOS>BOND
     1    1    6 ar
     2    1    2 ar
     3    1   30 1
     4    2    3 ar
     5    2   31 1
     6    3    4 ar
     7    3   32 1
     8    4    5 ar
     9    4   25 1
    10    5    6 ar
    11    5    7 1
    12    6   33 1
    13    7    8 1
    14    7    9 2
    15    9   10 1
    16   10   15 ar
    17   10   11 ar
    18   11   12 ar
    19   11   22 1
    20   12   13 ar
    21   12   17 1
    22   13   14 ar
    23   14   15 ar
    24   14   16 1
    25   16   34 1
    26   16   35 1
    27   17   21 1
    28   17   18 2
    29   18   19 1
    30   18   36 1
    31   19   20 2
    32   19   37 1
    33   20   21 1
    34   20   38 1
    35   22   23 2
    36   22   24 1
    37   25   26 1
    38   26   27 1
    39   26   28 1
    40   26   29 1
