@<TRIPOS>MOLECULE
CHEMBL360241
   39    42     0     0     0
SMALL
USER_CHARGES

@<TRIPOS>ATOM
      1 C1         -0.0187    1.5258    0.0104 C.3       1 <0>        -0.1458
      2 C2          0.0021   -0.0041    0.0020 C.3       1 <0>        -0.0569
      3 C3          0.7421   -0.5109    1.2415 C.3       1 <0>        -0.1458
      4 C4         -1.4117   -0.5257    0.0127 C.ar      1 <0>        -0.0832
      5 C5         -2.2574   -0.2023    1.0588 C.ar      1 <0>        -0.0852
      6 C6         -3.5562   -0.6790    1.0735 C.ar      1 <0>        -0.1031
      7 C7         -4.0102   -1.4775    0.0456 C.ar      1 <0>        -0.0668
      8 C8         -3.1668   -1.8086   -1.0125 C.ar      1 <0>        -0.0696
      9 C9         -1.8589   -1.3188   -1.0230 C.ar      1 <0>        -0.0598
     10 C10        -3.8964   -2.6685   -1.9739 C.ar      1 <0>         0.2638
     11 C11        -5.1939   -2.8749   -1.5178 C.ar      1 <0>        -0.2372
     12 C12        -6.0613   -3.6612   -2.2752 C.ar      1 <0>         0.3097
     13 N1         -5.6142   -4.1916   -3.4178 N.ar      1 <0>        -0.5484
     14 C13        -4.3727   -3.9741   -3.8215 C.ar      1 <0>         0.5817
     15 N2         -3.5252   -3.2325   -3.1252 N.ar      1 <0>        -0.5546
     16 N3         -3.9462   -4.5409   -5.0103 N.pl3     1 <0>        -0.8170
     17 C14        -7.4446   -3.9034   -1.8242 C.2       1 <0>         0.0365
     18 C15        -8.5362   -4.0298   -2.6275 C.2       1 <0>        -0.1399
     19 C16        -9.6388   -4.2505   -1.7816 C.2       1 <0>        -0.1561
     20 C17        -9.1724   -4.2483   -0.5146 C.2       1 <0>        -0.0150
     21 O1         -7.8466   -4.0438   -0.5452 O.3       1 <0>        -0.1458
     22 Br1       -10.2137   -4.4984    1.0439 Br        1 <0>         0.0636
     23 C18        -5.3442   -2.1350   -0.2145 C.3       1 <0>        -0.0265
     24 H1          1.0039    1.9031    0.0027 H         1 <0>         0.0603
     25 H2         -0.5459    1.8868   -0.8726 H         1 <0>         0.0567
     26 H3         -0.5289    1.8773    0.9072 H         1 <0>         0.0577
     27 H4          0.5123   -0.3556   -0.8948 H         1 <0>         0.0798
     28 H5          0.2319   -0.1594    2.1383 H         1 <0>         0.0577
     29 H6          0.7568   -1.6008    1.2356 H         1 <0>         0.0567
     30 H7          1.7647   -0.1336    1.2338 H         1 <0>         0.0603
     31 H8         -1.9032    0.4229    1.8651 H         1 <0>         0.1316
     32 H9         -4.2147   -0.4257    1.8912 H         1 <0>         0.1320
     33 H10        -1.1965   -1.5650   -1.8397 H         1 <0>         0.1297
     34 H11        -4.5541   -5.0872   -5.5327 H         1 <0>         0.4176
     35 H12        -3.0395   -4.3917   -5.3209 H         1 <0>         0.4177
     36 H13        -8.5529   -3.9714   -3.7058 H         1 <0>         0.1663
     37 H14       -10.6644   -4.3942   -2.0880 H         1 <0>         0.1678
     38 H15        -5.5818   -2.8329    0.5883 H         1 <0>         0.1059
     39 H16        -6.1251   -1.3794   -0.2995 H         1 <0>         0.1038
@<TRIPOS>BOND
     1    1    2 1
     2    1   24 1
     3    1   25 1
     4    1   26 1
     5    2    3 1
     6    2    4 1
     7    2   27 1
     8    3   28 1
     9    3   29 1
    10    3   30 1
    11    4    9 ar
    12    4    5 ar
    13    5    6 ar
    14    5   31 1
    15    6    7 ar
    16    6   32 1
    17    7   23 1
    18    7    8 ar
    19    8    9 ar
    20    8   10 1
    21    9   33 1
    22   10   15 ar
    23   10   11 ar
    24   11   12 ar
    25   11   23 1
    26   12   13 ar
    27   12   17 1
    28   13   14 ar
    29   14   15 ar
    30   14   16 1
    31   16   34 1
    32   16   35 1
    33   17   21 1
    34   17   18 2
    35   18   19 1
    36   18   36 1
    37   19   20 2
    38   19   37 1
    39   20   21 1
    40   20   22 1
    41   23   38 1
    42   23   39 1
