@<TRIPOS>MOLECULE
CHEMBL186113
   61    65     0     0     0
SMALL
USER_CHARGES

@<TRIPOS>ATOM
      1 C1         -0.0187    1.5258    0.0104 C.3       1 <0>        -0.1730
      2 C2          0.0021   -0.0041    0.0020 C.3       1 <0>         0.1216
      3 N1         -1.3723   -0.5112    0.0124 N.pl3     1 <0>        -0.1315
      4 N2         -2.0653   -0.7707    1.0676 N.2       1 <0>        -0.2894
      5 C3         -3.2407   -1.2029    0.6817 C.2       1 <0>         0.1525
      6 N3         -3.2374   -1.1968   -0.6514 N.2       1 <0>        -0.2600
      7 N4         -2.0832   -0.7636   -1.0313 N.2       1 <0>        -0.0531
      8 C4         -4.3787   -1.6260    1.5744 C.3       1 <0>         0.1593
      9 H1         -4.2051   -1.2700    2.5899 H         1 <0>         0.1221
     10 C5         -4.5036   -3.1620    1.5718 C.3       1 <0>         0.0527
     11 H2         -3.7765   -3.6027    0.8897 H         1 <0>         0.0865
     12 C6         -5.9448   -3.4246    1.0712 C.3       1 <0>         0.0830
     13 H3         -5.9517   -3.6441    0.0035 H         1 <0>         0.0946
     14 C7         -6.6414   -2.0710    1.3622 C.3       1 <0>         0.3242
     15 H4         -6.9431   -2.0116    2.4079 H         1 <0>         0.1264
     16 O1         -5.6164   -1.0928    1.0744 O.3       1 <0>        -0.3437
     17 N5         -7.7979   -1.8862    0.4820 N.pl3     1 <0>        -0.4754
     18 C8         -7.8094   -1.2148   -0.7058 C.2       1 <0>         0.2477
     19 N6         -9.0028   -1.2470   -1.2225 N.2       1 <0>        -0.4519
     20 C9         -9.8313   -1.9390   -0.4020 C.ar      1 <0>        -0.1577
     21 C10        -9.0666   -2.3615    0.6980 C.ar      1 <0>         0.3652
     22 N7         -9.6499   -3.0728    1.6574 N.ar      1 <0>        -0.5976
     23 C11       -10.9337   -3.3833    1.5793 C.ar      1 <0>         0.6324
     24 N8        -11.6923   -3.0076    0.5575 N.ar      1 <0>        -0.6277
     25 C12       -11.1922   -2.2878   -0.4408 C.ar      1 <0>         0.5429
     26 N9        -11.9907   -1.9020   -1.5029 N.pl3     1 <0>        -0.8184
     27 N10       -11.5054   -4.1265    2.5989 N.pl3     1 <0>        -0.6777
     28 C13       -12.9247   -4.4841    2.5376 C.3       1 <0>         0.1758
     29 H5        -13.2089   -4.6672    1.5013 H         1 <0>         0.1048
     30 C14       -13.1682   -5.7485    3.3641 C.3       1 <0>        -0.0859
     31 C15       -12.4376   -6.9074    2.7364 C.ar      1 <0>        -0.0818
     32 C16       -13.0651   -7.6839    1.7802 C.ar      1 <0>        -0.1169
     33 C17       -12.3949   -8.7470    1.2044 C.ar      1 <0>        -0.1193
     34 C18       -11.0970   -9.0333    1.5844 C.ar      1 <0>        -0.1247
     35 C19       -10.4692   -8.2563    2.5399 C.ar      1 <0>        -0.1159
     36 C20       -11.1379   -7.1906    3.1126 C.ar      1 <0>        -0.1069
     37 C21       -13.7647   -3.3365    3.1017 C.3       1 <0>         0.0626
     38 O2        -13.4757   -3.1731    4.4916 O.3       1 <0>        -0.5690
     39 O3         -6.5566   -4.4832    1.8109 O.3       1 <0>        -0.5175
     40 O4         -4.3275   -3.6803    2.8918 O.3       1 <0>        -0.5327
     41 H6          1.0039    1.9031    0.0027 H         1 <0>         0.0959
     42 H7         -0.5459    1.8868   -0.8726 H         1 <0>         0.0717
     43 H8         -0.5289    1.8773    0.9072 H         1 <0>         0.0708
     44 H9          0.5123   -0.3556   -0.8948 H         1 <0>         0.1219
     45 H10         0.5293   -0.3651    0.8851 H         1 <0>         0.1193
     46 H11        -6.9542   -0.7281   -1.1509 H         1 <0>         0.2198
     47 H12       -11.6124   -1.3851   -2.2313 H         1 <0>         0.4194
     48 H13       -12.9287   -2.1484   -1.5190 H         1 <0>         0.4078
     49 H14       -10.9659   -4.4101    3.3535 H         1 <0>         0.4147
     50 H15       -12.8021   -5.5951    4.3793 H         1 <0>         0.0880
     51 H16       -14.2363   -5.9644    3.3918 H         1 <0>         0.0883
     52 H17       -14.0791   -7.4602    1.4833 H         1 <0>         0.1202
     53 H18       -12.8854   -9.3540    0.4579 H         1 <0>         0.1196
     54 H19       -10.5736   -9.8643    1.1351 H         1 <0>         0.1185
     55 H20        -9.4553   -8.4802    2.8371 H         1 <0>         0.1199
     56 H21       -10.6461   -6.5812    3.8564 H         1 <0>         0.1188
     57 H22       -13.5252   -2.4155    2.5701 H         1 <0>         0.0530
     58 H23       -14.8230   -3.5644    2.9750 H         1 <0>         0.0536
     59 H24       -13.9737   -2.4610    4.9158 H         1 <0>         0.3785
     60 H25        -6.1014   -5.3327    1.7315 H         1 <0>         0.3866
     61 H26        -3.4599   -3.4929    3.2754 H         1 <0>         0.3875
@<TRIPOS>BOND
     1    1    2 1
     2    1   41 1
     3    1   42 1
     4    1   43 1
     5    2    3 1
     6    2   44 1
     7    2   45 1
     8    3    7 1
     9    3    4 1
    10    4    5 2
    11    5    6 1
    12    5    8 1
    13    6    7 2
    14    8    9 1
    15    8   16 1
    16    8   10 1
    17   10   11 1
    18   10   12 1
    19   10   40 1
    20   12   13 1
    21   12   14 1
    22   12   39 1
    23   14   15 1
    24   14   16 1
    25   14   17 1
    26   17   21 1
    27   17   18 1
    28   18   19 2
    29   18   46 1
    30   19   20 1
    31   20   25 ar
    32   20   21 ar
    33   21   22 ar
    34   22   23 ar
    35   23   24 ar
    36   23   27 1
    37   24   25 ar
    38   25   26 1
    39   26   47 1
    40   26   48 1
    41   27   28 1
    42   27   49 1
    43   28   29 1
    44   28   30 1
    45   28   37 1
    46   30   31 1
    47   30   50 1
    48   30   51 1
    49   31   36 ar
    50   31   32 ar
    51   32   33 ar
    52   32   52 1
    53   33   34 ar
    54   33   53 1
    55   34   35 ar
    56   34   54 1
    57   35   36 ar
    58   35   55 1
    59   36   56 1
    60   37   38 1
    61   37   57 1
    62   37   58 1
    63   38   59 1
    64   39   60 1
    65   40   61 1
