@<TRIPOS>MOLECULE
CHEMBL253528
   57    60     0     0     0
SMALL
USER_CHARGES

@<TRIPOS>ATOM
      1 C1         -0.0174    1.5029    0.0163 C.3       1 <0>        -0.0821
      2 C2          0.0028   -0.0040    0.0067 C.2       1 <0>         0.0304
      3 C3         -1.0824   -0.8047    0.0055 C.2       1 <0>        -0.2271
      4 C4         -0.6156   -2.1325   -0.0046 C.2       1 <0>        -0.1077
      5 C5          0.7438   -2.0698   -0.0090 C.2       1 <0>         0.0026
      6 O1          1.1033   -0.7711   -0.0079 O.3       1 <0>        -0.1502
      7 C6          1.6639   -3.2233   -0.0197 C.ar      1 <0>         0.4679
      8 N1          1.1612   -4.4528   -0.0311 N.ar      1 <0>        -0.5093
      9 C7          1.9607   -5.5134   -0.0409 C.ar      1 <0>         0.4327
     10 C8          3.3411   -5.3227   -0.0390 C.ar      1 <0>        -0.2577
     11 C9          3.8312   -4.0210   -0.0269 C.ar      1 <0>         0.4597
     12 N2          2.9741   -3.0063   -0.0230 N.ar      1 <0>        -0.5394
     13 N3          5.2072   -3.7839   -0.0245 N.pl3     1 <0>        -0.3370
     14 C10         5.8270   -2.6608   -0.4732 C.2       1 <0>         0.1171
     15 C11         7.1571   -2.8288   -0.2951 C.2       1 <0>        -0.2569
     16 C12         7.3603   -4.0894    0.2785 C.2       1 <0>         0.1079
     17 N4          6.1949   -4.6588    0.4463 N.2       1 <0>        -0.2880
     18 C13         8.6944   -4.6863    0.6461 C.3       1 <0>        -0.0779
     19 C14         5.1541   -1.4481   -1.0627 C.3       1 <0>        -0.0899
     20 N5          1.4270   -6.7978   -0.0524 N.am      1 <0>        -0.6458
     21 C15         0.0948   -6.9750    0.0491 C.2       1 <0>         0.5069
     22 O2         -0.6457   -6.0146    0.0576 O.2       1 <0>        -0.4271
     23 C16        -0.4747   -8.3664    0.1520 C.3       1 <0>         0.0284
     24 O3         -1.8985   -8.2925    0.2486 O.3       1 <0>        -0.2493
     25 C17        -2.5712   -9.4672    0.3490 C.ar      1 <0>         0.2600
     26 C18        -1.8895  -10.6815    0.3620 C.ar      1 <0>        -0.2382
     27 C19        -2.6095  -11.8539    0.4659 C.ar      1 <0>         0.2123
     28 N6         -3.9262  -11.8334    0.5517 N.ar      1 <0>        -0.4783
     29 C20        -4.6074  -10.7033    0.5427 C.ar      1 <0>         0.2037
     30 C21        -3.9602   -9.4885    0.4475 C.ar      1 <0>        -0.1665
     31 C22        -6.1106  -10.7397    0.6435 C.3       1 <0>        -0.1452
     32 C23        -1.8833  -13.1743    0.4810 C.3       1 <0>        -0.1472
     33 H1          1.0052    1.8801    0.0100 H         1 <0>         0.0812
     34 H2         -0.5437    1.8648   -0.8670 H         1 <0>         0.0935
     35 H3         -0.5285    1.8536    0.9129 H         1 <0>         0.0932
     36 H4         -2.1146   -0.4871    0.0115 H         1 <0>         0.1584
     37 H5         -1.2194   -3.0278   -0.0078 H         1 <0>         0.1642
     38 H6          4.0152   -6.1665   -0.0464 H         1 <0>         0.1637
     39 H7          7.9270   -2.1159   -0.5509 H         1 <0>         0.1619
     40 H8          8.9433   -4.4154    1.6721 H         1 <0>         0.0853
     41 H9          8.6432   -5.7716    0.5591 H         1 <0>         0.0775
     42 H10         9.4615   -4.3036   -0.0271 H         1 <0>         0.0862
     43 H11         4.9184   -0.7408   -0.2675 H         1 <0>         0.0899
     44 H12         5.8224   -0.9758   -1.7828 H         1 <0>         0.0858
     45 H13         4.2348   -1.7505   -1.5642 H         1 <0>         0.0776
     46 H14         2.0136   -7.5661   -0.1335 H         1 <0>         0.4276
     47 H15        -0.1999   -8.9380   -0.7345 H         1 <0>         0.1188
     48 H16        -0.0753   -8.8577    1.0393 H         1 <0>         0.1194
     49 H17        -0.8121  -10.7053    0.2914 H         1 <0>         0.1855
     50 H18        -4.5233   -8.5669    0.4450 H         1 <0>         0.1931
     51 H19        -6.4054  -10.6996    1.6921 H         1 <0>         0.1198
     52 H20        -6.5310   -9.8842    0.1149 H         1 <0>         0.1207
     53 H21        -6.4825  -11.6616    0.1965 H         1 <0>         0.1014
     54 H22        -1.6403  -13.4436    1.5088 H         1 <0>         0.1196
     55 H23        -2.5197  -13.9440    0.0445 H         1 <0>         0.1020
     56 H24        -0.9645  -13.0903   -0.0995 H         1 <0>         0.1182
     57 H25        -4.4069  -12.6729    0.6231 H         1 <0>         0.4469
@<TRIPOS>BOND
     1    1    2 1
     2    1   33 1
     3    1   34 1
     4    1   35 1
     5    2    6 1
     6    2    3 2
     7    3    4 1
     8    3   36 1
     9    4    5 2
    10    4   37 1
    11    5    6 1
    12    5    7 1
    13    7   12 ar
    14    7    8 ar
    15    8    9 ar
    16    9   10 ar
    17    9   20 1
    18   10   11 ar
    19   10   38 1
    20   11   12 ar
    21   11   13 1
    22   13   17 1
    23   13   14 1
    24   14   15 2
    25   14   19 1
    26   15   16 1
    27   15   39 1
    28   16   17 2
    29   16   18 1
    30   18   40 1
    31   18   41 1
    32   18   42 1
    33   19   43 1
    34   19   44 1
    35   19   45 1
    36   20   21 am
    37   20   46 1
    38   21   22 2
    39   21   23 1
    40   23   24 1
    41   23   47 1
    42   23   48 1
    43   24   25 1
    44   25   30 ar
    45   25   26 ar
    46   26   27 ar
    47   26   49 1
    48   27   28 ar
    49   27   32 1
    50   28   29 ar
    51   28   57 1
    52   29   30 ar
    53   29   31 1
    54   30   50 1
    55   31   51 1
    56   31   52 1
    57   31   53 1
    58   32   54 1
    59   32   55 1
    60   32   56 1
