@<TRIPOS>MOLECULE
CHEMBL522268
   56    60     0     0     0
SMALL
USER_CHARGES

@<TRIPOS>ATOM
      1 C1         -0.0173    1.4248    0.0099 C.3       1 <0>         0.0265
      2 O1          0.0021   -0.0041    0.0020 O.3       1 <0>        -0.3121
      3 C2          0.6258   -0.6184    1.0415 C.ar      1 <0>         0.1490
      4 C3          1.2024    0.1395    2.0513 C.ar      1 <0>        -0.2166
      5 C4          1.8372   -0.4838    3.1084 C.ar      1 <0>        -0.0582
      6 C5          1.9002   -1.8630    3.1637 C.ar      1 <0>        -0.1695
      7 C6          1.3251   -2.6261    2.1561 C.ar      1 <0>         0.1822
      8 C7          0.6817   -2.0020    1.0968 C.ar      1 <0>        -0.1708
      9 N1          1.3895   -4.0249    2.2120 N.am      1 <0>        -0.4624
     10 C8          1.9894   -4.7660    3.2149 C.ar      1 <0>         0.3941
     11 C9          1.8228   -6.1152    2.8754 C.ar      1 <0>        -0.0661
     12 C10         2.3364   -7.0825    3.7211 C.ar      1 <0>         0.2209
     13 N2          2.9677   -6.6991    4.8222 N.ar      1 <0>        -0.5426
     14 C11         3.1092   -5.4150    5.1162 C.ar      1 <0>         0.5842
     15 N3          2.6324   -4.4588    4.3326 N.ar      1 <0>        -0.5560
     16 N4          3.7767   -5.0611    6.2784 N.pl3     1 <0>        -0.6945
     17 C12         4.3131   -6.1005    7.1604 C.3       1 <0>         0.1431
     18 C13         4.9969   -5.4463    8.3626 C.3       1 <0>        -0.0479
     19 C14         5.5487   -6.5155    9.2700 C.2       1 <0>        -0.1427
     20 C15         6.7733   -7.0965    9.2584 C.2       1 <0>        -0.1509
     21 C16         7.0636   -8.0673   10.1985 C.2       1 <0>        -0.1577
     22 C17         6.1151   -8.4098   11.1042 C.2       1 <0>        -0.1706
     23 S1          4.7618   -7.3401   10.6440 S.3       1 <0>         0.0388
     24 N5          1.1233   -6.1436    1.6708 N.am      1 <0>        -0.5201
     25 C18         0.8729   -4.8721    1.3016 C.2       1 <0>         0.6895
     26 O2          0.2732   -4.5396    0.2965 O.2       1 <0>        -0.5083
     27 C19         0.7243   -7.3467    0.9362 C.3       1 <0>         0.1778
     28 C20        -0.6407   -7.7877    1.3982 C.ar      1 <0>        -0.1999
     29 C21        -0.7616   -8.6695    2.4583 C.ar      1 <0>         0.1495
     30 C22        -2.0164   -9.0741    2.8819 C.ar      1 <0>        -0.1672
     31 C23        -3.1476   -8.5979    2.2466 C.ar      1 <0>        -0.0481
     32 C24        -3.0281   -7.7179    1.1877 C.ar      1 <0>        -0.1680
     33 C25        -1.7746   -7.3071    0.7663 C.ar      1 <0>         0.1570
     34 F1         -1.6582   -6.4421   -0.2649 F         1 <0>        -0.1114
     35 F2          0.3440   -9.1354    3.0792 F         1 <0>        -0.1266
     36 H1          1.0053    1.8021    0.0021 H         1 <0>         0.0572
     37 H2         -0.5445    1.7859   -0.8732 H         1 <0>         0.1024
     38 H3         -0.5275    1.7763    0.9067 H         1 <0>         0.0570
     39 H4          1.1550    1.2177    2.0106 H         1 <0>         0.1327
     40 H5          2.2854    0.1081    3.8928 H         1 <0>         0.1347
     41 H6          2.3973   -2.3478    3.9908 H         1 <0>         0.1543
     42 H7          0.2295   -2.5934    0.3144 H         1 <0>         0.1647
     43 H8          2.2248   -8.1313    3.4886 H         1 <0>         0.1797
     44 H9          3.8886   -4.1253    6.5076 H         1 <0>         0.4162
     45 H10         3.4998   -6.7378    7.5075 H         1 <0>         0.0745
     46 H11         5.0384   -6.7027    6.6132 H         1 <0>         0.0757
     47 H12         5.8103   -4.8090    8.0155 H         1 <0>         0.0949
     48 H13         4.2717   -4.8441    8.9098 H         1 <0>         0.0879
     49 H14         7.5111   -6.8054    8.5253 H         1 <0>         0.1336
     50 H15         8.0316   -8.5462   10.2109 H         1 <0>         0.1344
     51 H16         6.1661   -9.1379   11.9002 H         1 <0>         0.1859
     52 H17         0.6933   -7.1272   -0.1310 H         1 <0>         0.1166
     53 H18         1.4456   -8.1422    1.1228 H         1 <0>         0.1118
     54 H19        -2.1110   -9.7623    3.7089 H         1 <0>         0.1471
     55 H20        -4.1258   -8.9141    2.5777 H         1 <0>         0.1476
     56 H21        -3.9127   -7.3470    0.6915 H         1 <0>         0.1469
@<TRIPOS>BOND
     1    1    2 1
     2    1   36 1
     3    1   37 1
     4    1   38 1
     5    2    3 1
     6    3    8 ar
     7    3    4 ar
     8    4    5 ar
     9    4   39 1
    10    5    6 ar
    11    5   40 1
    12    6    7 ar
    13    6   41 1
    14    7    8 ar
    15    7    9 1
    16    8   42 1
    17    9   25 am
    18    9   10 1
    19   10   15 ar
    20   10   11 ar
    21   11   12 ar
    22   11   24 1
    23   12   13 ar
    24   12   43 1
    25   13   14 ar
    26   14   15 ar
    27   14   16 1
    28   16   17 1
    29   16   44 1
    30   17   18 1
    31   17   45 1
    32   17   46 1
    33   18   19 1
    34   18   47 1
    35   18   48 1
    36   19   23 1
    37   19   20 2
    38   20   21 1
    39   20   49 1
    40   21   22 2
    41   21   50 1
    42   22   23 1
    43   22   51 1
    44   24   25 am
    45   24   27 1
    46   25   26 2
    47   27   28 1
    48   27   52 1
    49   27   53 1
    50   28   33 ar
    51   28   29 ar
    52   29   30 ar
    53   29   35 1
    54   30   31 ar
    55   30   54 1
    56   31   32 ar
    57   31   55 1
    58   32   33 ar
    59   32   56 1
    60   33   34 1
