@<TRIPOS>MOLECULE
CHEMBL282888
   55    60     0     0     0
SMALL
USER_CHARGES

@<TRIPOS>ATOM
      1 C1         -0.0162    1.3433    0.0094 C.2       1 <0>        -0.2200
      2 C2          1.3252    1.7744   -0.0011 C.2       1 <0>        -0.1377
      3 C3          2.0962    0.6548   -0.0144 C.2       1 <0>         0.0431
      4 O1          1.2797   -0.4166   -0.0124 O.3       1 <0>        -0.1520
      5 C4          0.0021   -0.0041    0.0020 C.2       1 <0>        -0.0045
      6 C5          3.5736    0.6193   -0.0287 C.2       1 <0>         0.3499
      7 N1          4.3223   -0.4908   -0.0472 N.2       1 <0>        -0.5166
      8 C6          5.5979   -0.1638   -0.0558 C.2       1 <0>         0.4067
      9 C7          6.8494   -0.9218   -0.0750 C.2       1 <0>        -0.2677
     10 C8          7.1770   -2.2895   -0.0925 C.2       1 <0>         0.1301
     11 N2          8.4769   -2.4024   -0.1057 N.2       1 <0>        -0.2624
     12 N3          9.0564   -1.1275   -0.0976 N.pl3     1 <0>        -0.3533
     13 C9          8.0548   -0.2036   -0.0786 C.2       1 <0>         0.3703
     14 N4          8.0263    1.1363   -0.0638 N.2       1 <0>        -0.5603
     15 C10         6.9037    1.8122   -0.0459 C.2       1 <0>         0.6913
     16 N5          5.6820    1.2042   -0.0426 N.pl3     1 <0>        -0.3762
     17 N6          4.3634    1.6766   -0.0311 N.2       1 <0>        -0.3000
     18 N7          6.9590    3.1863   -0.0316 N.pl3     1 <0>        -0.8025
     19 C11        10.4923   -0.8370   -0.1068 C.3       1 <0>         0.1369
     20 C12        10.9797   -0.7205   -1.5524 C.3       1 <0>        -0.1321
     21 C13        12.4793   -0.4171   -1.5620 C.3       1 <0>        -0.0690
     22 C14        12.9595   -0.3024   -2.9859 C.ar      1 <0>        -0.0772
     23 C15        13.4114   -1.4252   -3.6540 C.ar      1 <0>        -0.1067
     24 C16        13.8523   -1.3251   -4.9603 C.ar      1 <0>        -0.1001
     25 C17        13.8428   -0.0979   -5.6033 C.ar      1 <0>         0.0508
     26 C18        13.3876    1.0332   -4.9302 C.ar      1 <0>         0.0526
     27 C19        12.9418    0.9243   -3.6230 C.ar      1 <0>        -0.0981
     28 O2         13.4772    2.1058   -5.7696 O.3       1 <0>        -0.2893
     29 C20        14.3712    1.6970   -6.8218 C.3       1 <0>         0.2654
     30 O3         14.2175    0.2660   -6.8644 O.3       1 <0>        -0.2866
     31 C21        15.8139    2.0728   -6.4776 C.3       1 <0>         0.0467
     32 O4         16.1933    1.4364   -5.2557 O.3       1 <0>        -0.5552
     33 C22        13.9546    2.3224   -8.1545 C.3       1 <0>         0.0871
     34 O5         12.6228    1.9158   -8.4758 O.3       1 <0>        -0.5532
     35 H1         -0.8931    1.9736    0.0252 H         1 <0>         0.1593
     36 H2          1.6736    2.7966    0.0006 H         1 <0>         0.1598
     37 H3         -0.8667   -0.6456    0.0076 H         1 <0>         0.2141
     38 H4          6.4721   -3.1077   -0.0946 H         1 <0>         0.2020
     39 H5          7.8178    3.6373   -0.0348 H         1 <0>         0.4303
     40 H6          6.1392    3.7046   -0.0183 H         1 <0>         0.4261
     41 H7         10.6764    0.1019    0.4155 H         1 <0>         0.1006
     42 H8         11.0292   -1.6426    0.3939 H         1 <0>         0.1036
     43 H9         10.7956   -1.6593   -2.0747 H         1 <0>         0.0776
     44 H10        10.4428    0.0852   -2.0531 H         1 <0>         0.0723
     45 H11        12.6634    0.5217   -1.0397 H         1 <0>         0.0788
     46 H12        13.0163   -1.2228   -1.0613 H         1 <0>         0.0820
     47 H13        13.4202   -2.3825   -3.1541 H         1 <0>         0.1356
     48 H14        14.2048   -2.2039   -5.4798 H         1 <0>         0.1317
     49 H15        12.5840    1.7990   -3.1001 H         1 <0>         0.1298
     50 H16        16.4758    1.7446   -7.2790 H         1 <0>         0.0756
     51 H17        15.8903    3.1540   -6.3632 H         1 <0>         0.0755
     52 H18        17.0983    1.6304   -4.9757 H         1 <0>         0.3873
     53 H19        13.9933    3.4088   -8.0740 H         1 <0>         0.0797
     54 H20        14.6348    1.9918   -8.9394 H         1 <0>         0.0797
     55 H21        12.2922    2.2758   -9.3102 H         1 <0>         0.3887
@<TRIPOS>BOND
     1    1    5 2
     2    1    2 1
     3    1   35 1
     4    2    3 2
     5    2   36 1
     6    3    4 1
     7    3    6 1
     8    4    5 1
     9    5   37 1
    10    6   17 2
    11    6    7 1
    12    7    8 2
    13    8   16 1
    14    8    9 1
    15    9   13 2
    16    9   10 1
    17   10   11 2
    18   10   38 1
    19   11   12 1
    20   12   13 1
    21   12   19 1
    22   13   14 1
    23   14   15 2
    24   15   16 1
    25   15   18 1
    26   16   17 1
    27   18   39 1
    28   18   40 1
    29   19   20 1
    30   19   41 1
    31   19   42 1
    32   20   21 1
    33   20   43 1
    34   20   44 1
    35   21   22 1
    36   21   45 1
    37   21   46 1
    38   22   27 ar
    39   22   23 ar
    40   23   24 ar
    41   23   47 1
    42   24   25 ar
    43   24   48 1
    44   25   30 1
    45   25   26 ar
    46   26   27 ar
    47   26   28 1
    48   27   49 1
    49   28   29 1
    50   29   30 1
    51   29   31 1
    52   29   33 1
    53   31   32 1
    54   31   50 1
    55   31   51 1
    56   32   52 1
    57   33   34 1
    58   33   53 1
    59   33   54 1
    60   34   55 1
