@<TRIPOS>MOLECULE
CHEMBL270314
   64    67     0     0     0
SMALL
USER_CHARGES

@<TRIPOS>ATOM
      1 C1          8.3276   -1.9632   -0.0229 C.3       1 <0>        -0.0830
      2 C2          7.2456   -3.0122   -0.0325 C.2       1 <0>         0.0319
      3 C3          7.4442   -4.3460   -0.0478 C.2       1 <0>        -0.2280
      4 C4          6.1740   -4.9523   -0.0521 C.2       1 <0>        -0.1087
      5 C5          5.2590   -3.9452   -0.0390 C.2       1 <0>         0.0031
      6 O1          5.9255   -2.7740   -0.0213 O.3       1 <0>        -0.1502
      7 C6          3.7924   -4.1072   -0.0379 C.ar      1 <0>         0.4663
      8 N1          3.2761   -5.3312   -0.0451 N.ar      1 <0>        -0.5086
      9 C7          1.9604   -5.5132   -0.0444 C.ar      1 <0>         0.4282
     10 C8          1.1213   -4.4006   -0.0358 C.ar      1 <0>        -0.2585
     11 C9          1.6977   -3.1348   -0.0284 C.ar      1 <0>         0.4604
     12 N2          3.0215   -3.0261   -0.0242 N.ar      1 <0>        -0.5392
     13 N3          0.8947   -1.9926   -0.0198 N.pl3     1 <0>        -0.3378
     14 C10         1.2507   -0.7669    0.4467 C.2       1 <0>         0.1166
     15 C11         0.1939    0.0593    0.2742 C.2       1 <0>        -0.2561
     16 C12        -0.8398   -0.6788   -0.3144 C.2       1 <0>         0.1090
     17 N4         -0.4198   -1.9040   -0.4962 N.2       1 <0>        -0.2884
     18 C13        -2.2022   -0.1499   -0.6819 C.3       1 <0>        -0.0784
     19 C14         2.5818   -0.3957    1.0479 C.3       1 <0>        -0.0897
     20 N5          1.4270   -6.7978   -0.0524 N.am      1 <0>        -0.6474
     21 C15         2.2422   -7.8653   -0.1639 C.2       1 <0>         0.5144
     22 O2          3.4451   -7.7122   -0.1643 O.2       1 <0>        -0.4542
     23 C16         1.6587   -9.2492   -0.2879 C.3       1 <0>        -0.1697
     24 C17         2.7912  -10.2721   -0.3991 C.3       1 <0>         0.0116
     25 N6          2.2224  -11.6211   -0.5200 N.4       1 <0>        -0.3952
     26 C18         1.6031  -12.0408    0.7634 C.3       1 <0>        -0.0038
     27 C19         1.5683  -13.5826    0.6927 C.3       1 <0>        -0.1448
     28 C20         2.6833  -13.9634   -0.3030 C.3       1 <0>         0.0594
     29 H1          2.2625  -14.4907   -1.1591 H         1 <0>         0.0800
     30 C21         3.2980  -12.6197   -0.7501 C.3       1 <0>         0.0004
     31 N7          3.6968  -14.7951    0.3596 N.3       1 <0>        -0.5352
     32 C22         3.1098  -16.0490    0.8507 C.3       1 <0>         0.0152
     33 C23         4.8293  -15.0600   -0.5378 C.3       1 <0>         0.0100
     34 H2          7.8730   -0.9726   -0.0058 H         1 <0>         0.0815
     35 H3          8.9509   -2.0922    0.8620 H         1 <0>         0.0939
     36 H4          8.9413   -2.0660   -0.9178 H         1 <0>         0.0936
     37 H5          8.3977   -4.8532   -0.0557 H         1 <0>         0.1583
     38 H6          5.9658   -6.0120   -0.0639 H         1 <0>         0.1630
     39 H7          0.0478   -4.5186   -0.0354 H         1 <0>         0.1629
     40 H8          0.1544    1.1044    0.5435 H         1 <0>         0.1623
     41 H9         -2.1808    0.2311   -1.7029 H         1 <0>         0.0857
     42 H10        -2.9355   -0.9532   -0.6092 H         1 <0>         0.0778
     43 H11        -2.4759    0.6547    0.0005 H         1 <0>         0.0866
     44 H12         3.2532   -0.0531    0.2605 H         1 <0>         0.0899
     45 H13         2.4411    0.4015    1.7778 H         1 <0>         0.0861
     46 H14         3.0138   -1.2670    1.5402 H         1 <0>         0.0772
     47 H15         0.4683   -6.9254    0.0222 H         1 <0>         0.4277
     48 H16         1.0554   -9.4695    0.5927 H         1 <0>         0.1215
     49 H17         1.0333   -9.3013   -1.1791 H         1 <0>         0.1228
     50 H18         3.3945  -10.0518   -1.2798 H         1 <0>         0.1411
     51 H19         3.4166  -10.2200    0.4921 H         1 <0>         0.1420
     52 H20         2.2129  -11.7125    1.6051 H         1 <0>         0.1370
     53 H21         0.5924  -11.6412    0.8464 H         1 <0>         0.1349
     54 H22         1.7739  -14.0113    1.6735 H         1 <0>         0.1223
     55 H23         0.6002  -13.9230    0.3253 H         1 <0>         0.1017
     56 H24         3.5635  -12.6559   -1.8066 H         1 <0>         0.1357
     57 H25         4.1731  -12.3820   -0.1452 H         1 <0>         0.1454
     58 H26         2.6927  -16.6076    0.0128 H         1 <0>         0.0373
     59 H27         3.8817  -16.6457    1.3368 H         1 <0>         0.0840
     60 H28         2.3195  -15.8242    1.5669 H         1 <0>         0.0766
     61 H29         5.2889  -14.1162   -0.8310 H         1 <0>         0.0714
     62 H30         5.5647  -15.6776   -0.0223 H         1 <0>         0.0850
     63 H31         4.4744  -15.5827   -1.4260 H         1 <0>         0.0379
     64 H32         1.5455  -11.6530   -1.2676 H         1 <0>         0.4270
@<TRIPOS>BOND
     1    1    2 1
     2    1   34 1
     3    1   35 1
     4    1   36 1
     5    2    6 1
     6    2    3 2
     7    3    4 1
     8    3   37 1
     9    4    5 2
    10    4   38 1
    11    5    6 1
    12    5    7 1
    13    7   12 ar
    14    7    8 ar
    15    8    9 ar
    16    9   10 ar
    17    9   20 1
    18   10   11 ar
    19   10   39 1
    20   11   12 ar
    21   11   13 1
    22   13   17 1
    23   13   14 1
    24   14   15 2
    25   14   19 1
    26   15   16 1
    27   15   40 1
    28   16   17 2
    29   16   18 1
    30   18   41 1
    31   18   42 1
    32   18   43 1
    33   19   44 1
    34   19   45 1
    35   19   46 1
    36   20   21 am
    37   20   47 1
    38   21   22 2
    39   21   23 1
    40   23   24 1
    41   23   48 1
    42   23   49 1
    43   24   25 1
    44   24   50 1
    45   24   51 1
    46   25   30 1
    47   25   26 1
    48   25   64 1
    49   26   27 1
    50   26   52 1
    51   26   53 1
    52   27   28 1
    53   27   54 1
    54   27   55 1
    55   28   29 1
    56   28   30 1
    57   28   31 1
    58   30   56 1
    59   30   57 1
    60   31   32 1
    61   31   33 1
    62   32   58 1
    63   32   59 1
    64   32   60 1
    65   33   61 1
    66   33   62 1
    67   33   63 1
