@<TRIPOS>MOLECULE
CHEMBL174628
   51    55     0     0     0
SMALL
USER_CHARGES

@<TRIPOS>ATOM
      1 C1         -0.0162    1.3434    0.0094 C.2       1 <0>        -0.2213
      2 C2          1.3251    1.7745   -0.0011 C.2       1 <0>        -0.1059
      3 C3          2.0961    0.6548   -0.0144 C.2       1 <0>         0.0127
      4 O1          1.2796   -0.4166   -0.0124 O.3       1 <0>        -0.1596
      5 C4          0.0021   -0.0041    0.0020 C.2       1 <0>         0.0092
      6 C5          3.5734    0.6193   -0.0287 C.2       1 <0>         0.4074
      7 N1          4.3742    1.6925   -0.0248 N.2       1 <0>        -0.5183
      8 C6          5.6386    1.3040   -0.0409 C.2       1 <0>         0.5529
      9 N2          6.8046    1.9657   -0.0448 N.2       1 <0>        -0.5763
     10 C7          7.9464    1.2979   -0.0627 C.2       1 <0>         0.5637
     11 N3          7.9670   -0.0378   -0.0777 N.pl3     1 <0>        -0.5744
     12 C8          6.8416   -0.7289   -0.0744 C.cat     1 <0>         0.7577
     13 N4          5.6489   -0.0664   -0.0556 N.pl3     1 <0>        -0.4116
     14 N5          4.3107   -0.4751   -0.0417 N.2       1 <0>        -0.3299
     15 N6          6.8714   -2.0989   -0.0903 N.pl3     1 <0>        -0.7745
     16 N7          9.1377    1.9935   -0.0665 N.2       1 <0>        -0.6780
     17 C9          9.1306    3.4584   -0.0508 C.3       1 <0>         0.0721
     18 C10        10.5705    3.9755   -0.0588 C.3       1 <0>         0.0452
     19 H1         11.0531    3.7138   -1.0005 H         1 <0>         0.1371
     20 C11        10.5793    5.5074    0.1276 C.3       1 <0>        -0.1357
     21 C12        10.8419    5.6729    1.6476 C.3       1 <0>        -0.1405
     22 C13        11.8070    4.4943    1.9286 C.3       1 <0>        -0.0142
     23 N8         11.3198    3.3906    1.0683 N.4       1 <0>        -0.3791
     24 C14        12.4599    2.6185    0.5564 C.3       1 <0>         0.0514
     25 C15        13.1500    1.9227    1.7012 C.ar      1 <0>        -0.0901
     26 C16        14.1794    2.5442    2.3928 C.ar      1 <0>        -0.1509
     27 C17        14.7892    1.8762    3.4369 C.ar      1 <0>         0.1349
     28 N9         14.4037    0.6618    3.7783 N.ar      1 <0>        -0.4556
     29 C18        13.4285    0.0397    3.1435 C.ar      1 <0>         0.1813
     30 C19        12.7674    0.6494    2.0915 C.ar      1 <0>        -0.1337
     31 Cl1        12.9646   -1.5585    3.6380 Cl        1 <0>        -0.0070
     32 H2         -0.8931    1.9737    0.0252 H         1 <0>         0.1639
     33 H3          1.6734    2.7967    0.0008 H         1 <0>         0.1663
     34 H4         -0.8667   -0.6456    0.0069 H         1 <0>         0.2179
     35 H5          7.7217   -2.5654   -0.1039 H         1 <0>         0.4386
     36 H6          6.0421   -2.6021   -0.0878 H         1 <0>         0.4516
     37 H7          8.6066    3.8287   -0.9319 H         1 <0>         0.0903
     38 H8          8.6234    3.8096    0.8478 H         1 <0>         0.0683
     39 H9         11.3814    5.9618   -0.4538 H         1 <0>         0.1011
     40 H10         9.6143    5.9344   -0.1455 H         1 <0>         0.1149
     41 H11        11.3210    6.6289    1.8593 H         1 <0>         0.1168
     42 H12         9.9188    5.5660    2.2173 H         1 <0>         0.0979
     43 H13        12.8266    4.7652    1.6548 H         1 <0>         0.1299
     44 H14        11.7589    4.2066    2.9789 H         1 <0>         0.1274
     45 H15        12.1044    1.8764   -0.1586 H         1 <0>         0.1462
     46 H16        13.1621    3.2908    0.0634 H         1 <0>         0.1389
     47 H17        14.5004    3.5381    2.1180 H         1 <0>         0.1527
     48 H18        15.5914    2.3538    3.9800 H         1 <0>         0.1791
     49 H19        11.9668    0.1375    1.5783 H         1 <0>         0.1541
     50 H20         8.8171   -0.5047   -0.0913 H         1 <0>         0.4470
     51 H21        10.7135    2.7856    1.6016 H         1 <0>         0.4280
@<TRIPOS>BOND
     1    1    5 2
     2    1    2 1
     3    1   32 1
     4    2    3 2
     5    2   33 1
     6    3    4 1
     7    3    6 1
     8    4    5 1
     9    5   34 1
    10    6   14 2
    11    6    7 1
    12    7    8 2
    13    8   13 1
    14    8    9 1
    15    9   10 2
    16   10   11 1
    17   10   16 1
    18   11   12 2
    19   11   50 1
    20   12   13 1
    21   12   15 1
    22   13   14 1
    23   15   35 1
    24   15   36 1
    25   16   17 1
    26   17   18 1
    27   17   37 1
    28   17   38 1
    29   18   19 1
    30   18   23 1
    31   18   20 1
    32   20   21 1
    33   20   39 1
    34   20   40 1
    35   21   22 1
    36   21   41 1
    37   21   42 1
    38   22   23 1
    39   22   43 1
    40   22   44 1
    41   23   24 1
    42   23   51 1
    43   24   25 1
    44   24   45 1
    45   24   46 1
    46   25   30 ar
    47   25   26 ar
    48   26   27 ar
    49   26   47 1
    50   27   28 ar
    51   27   48 1
    52   28   29 ar
    53   29   30 ar
    54   29   31 1
    55   30   49 1
