@<TRIPOS>MOLECULE
CHEMBL406314
   31    33     0     0     0
SMALL
USER_CHARGES

@<TRIPOS>ATOM
      1 C1         -0.0178    1.4608    0.0101 C.3       1 <0>         0.0662
      2 N1          0.0021   -0.0041    0.0020 N.pl3     1 <0>        -0.4295
      3 C2          0.0086   -0.8103   -1.1005 C.2       1 <0>        -0.0289
      4 C3          0.0277   -2.0865   -0.6576 C.2       1 <0>        -0.0195
      5 N2          0.0328   -2.0689    0.6778 N.2       1 <0>        -0.4457
      6 C4          0.0236   -0.8217    1.0949 C.2       1 <0>         0.2152
      7 C5          0.0309   -0.3810    2.5050 C.ar      1 <0>         0.3589
      8 C6          0.0590   -1.3050    3.5386 C.ar      1 <0>        -0.2731
      9 C7          0.0662   -0.8913    4.8906 C.ar      1 <0>         0.2213
     10 C8          0.0955   -1.9312    5.8369 C.2       1 <0>        -0.1720
     11 C9          0.1150   -3.2151    5.4317 C.2       1 <0>        -0.1158
     12 S1          0.0926   -3.0737    3.6524 S.3       1 <0>         0.1489
     13 N3          0.0435    0.4476    5.0945 N.ar      1 <0>        -0.5515
     14 C10         0.0167    1.2943    4.0885 C.ar      1 <0>         0.5760
     15 N4          0.0161    0.9188    2.8170 N.ar      1 <0>        -0.5526
     16 N5         -0.0060    2.6513    4.3726 N.pl3     1 <0>        -0.5944
     17 C11         0.0003    3.1085    5.7644 C.3       1 <0>         0.0956
     18 C12        -0.0362    3.6279    3.2810 C.3       1 <0>         0.1012
     19 H1          1.0048    1.8381    0.0023 H         1 <0>         0.0791
     20 H2         -0.5450    1.8219   -0.8730 H         1 <0>         0.0850
     21 H3         -0.5280    1.8123    0.9069 H         1 <0>         0.1095
     22 H4         -0.0003   -0.4885   -2.1313 H         1 <0>         0.1847
     23 H5          0.0366   -2.9705   -1.2779 H         1 <0>         0.1811
     24 H6          0.1027   -1.6993    6.8917 H         1 <0>         0.1480
     25 H7          0.1383   -4.1106    6.0350 H         1 <0>         0.2014
     26 H8          0.0238    2.2458    6.4302 H         1 <0>         0.0940
     27 H9          0.8807    3.7268    5.9398 H         1 <0>         0.0583
     28 H10        -0.8988    3.6931    5.9589 H         1 <0>         0.0580
     29 H11        -1.0711    3.8506    3.0212 H         1 <0>         0.0523
     30 H12         0.4639    4.5430    3.5981 H         1 <0>         0.0718
     31 H13         0.4762    3.2165    2.4113 H         1 <0>         0.0764
@<TRIPOS>BOND
     1    1    2 1
     2    1   19 1
     3    1   20 1
     4    1   21 1
     5    2    6 1
     6    2    3 1
     7    3    4 2
     8    3   22 1
     9    4    5 1
    10    4   23 1
    11    5    6 2
    12    6    7 1
    13    7   15 ar
    14    7    8 ar
    15    8   12 1
    16    8    9 ar
    17    9   10 1
    18    9   13 ar
    19   10   11 2
    20   10   24 1
    21   11   12 1
    22   11   25 1
    23   13   14 ar
    24   14   15 ar
    25   14   16 1
    26   16   17 1
    27   16   18 1
    28   17   26 1
    29   17   27 1
    30   17   28 1
    31   18   29 1
    32   18   30 1
    33   18   31 1
