@<TRIPOS>MOLECULE
CHEMBL222097
   65    70     0     0     0
SMALL
USER_CHARGES

@<TRIPOS>ATOM
      1 C1         -0.0162    1.3433    0.0094 C.2       1 <0>        -0.2202
      2 C2          1.3252    1.7744   -0.0011 C.2       1 <0>        -0.1183
      3 C3          2.0963    0.6547   -0.0144 C.2       1 <0>         0.0216
      4 O1          1.2798   -0.4167   -0.0124 O.3       1 <0>        -0.1596
      5 C4          0.0021   -0.0041    0.0020 C.2       1 <0>         0.0056
      6 C5          3.5735    0.6192   -0.0292 C.2       1 <0>         0.3475
      7 N1          4.3782    1.6975   -0.0257 N.2       1 <0>        -0.4769
      8 C6          5.6284    1.3133   -0.0438 C.2       1 <0>         0.4913
      9 N2          6.7827    2.0136   -0.0426 N.2       1 <0>        -0.5215
     10 C7          7.9149    1.3544   -0.2245 C.2       1 <0>         0.6668
     11 N3          7.9251    0.0030   -0.4737 N.pl3     1 <0>        -0.6585
     12 C8          6.8335   -0.7612   -0.0614 C.2       1 <0>         0.6248
     13 N4          5.6350   -0.0666   -0.0535 N.pl3     1 <0>        -0.4269
     14 N5          4.3125   -0.4776   -0.0421 N.2       1 <0>        -0.2680
     15 N6          6.9320   -2.0133    0.2840 N.2       1 <0>        -0.6626
     16 N7          9.1029    2.0335   -0.1638 N.pl3     1 <0>        -0.6011
     17 C9         10.3866    1.3423   -0.3661 C.3       1 <0>         0.0884
     18 C10        11.3005    1.6893    0.8113 C.3       1 <0>        -0.0218
     19 N8         11.4311    3.1501    0.9330 N.4       1 <0>        -0.3858
     20 C11        12.3915    3.4256    2.0122 C.3       1 <0>         0.0003
     21 C12        12.6152    4.9311    2.1496 C.3       1 <0>        -0.1367
     22 H1         13.3336    5.1226    2.9467 H         1 <0>         0.1469
     23 C13        11.2787    5.5987    2.4911 C.3       1 <0>        -0.1470
     24 C14        10.2734    5.2712    1.3860 C.3       1 <0>        -0.1474
     25 C15        10.1305    3.7519    1.2449 C.3       1 <0>         0.0107
     26 H2          9.7485    3.3332    2.1760 H         1 <0>         0.1555
     27 C16         9.1400    3.4780    0.0994 C.3       1 <0>         0.1108
     28 C17        13.1504    5.4926    0.8309 C.3       1 <0>        -0.0282
     29 N9         13.4773    6.9147    1.0009 N.4       1 <0>        -0.5092
     30 C18        13.9912    7.4538   -0.2652 C.3       1 <0>         0.0510
     31 C19        14.3266    8.9126   -0.0907 C.ar      1 <0>        -0.2267
     32 C20        13.4419    9.8817   -0.5255 C.ar      1 <0>        -0.0274
     33 C21        13.7479   11.2197   -0.3658 C.ar      1 <0>        -0.1582
     34 C22        14.9417   11.5913    0.2299 C.ar      1 <0>         0.1844
     35 C23        15.8282   10.6220    0.6656 C.ar      1 <0>        -0.1877
     36 C24        15.5180    9.2817    0.5102 C.ar      1 <0>         0.1567
     37 F1         16.3799    8.3343    0.9401 F         1 <0>        -0.1240
     38 F2         15.2410   12.8996    0.3851 F         1 <0>        -0.1054
     39 H3         -0.8931    1.9736    0.0252 H         1 <0>         0.1631
     40 H4          1.6735    2.7967    0.0011 H         1 <0>         0.1630
     41 H5         -0.8667   -0.6456    0.0069 H         1 <0>         0.2176
     42 H6          6.1427   -2.5028    0.5637 H         1 <0>         0.3878
     43 H7         10.2237    0.2651   -0.4012 H         1 <0>         0.1329
     44 H8         10.8427    1.6772   -1.2978 H         1 <0>         0.1143
     45 H9         10.8752    1.2862    1.7304 H         1 <0>         0.1449
     46 H10        12.2846    1.2505    0.6469 H         1 <0>         0.1578
     47 H11        12.0025    3.0313    2.9510 H         1 <0>         0.1525
     48 H12        13.3399    2.9391    1.7844 H         1 <0>         0.1486
     49 H13        10.9121    5.2172    3.4440 H         1 <0>         0.1154
     50 H14        11.4145    6.6783    2.5540 H         1 <0>         0.0961
     51 H15         9.3052    5.7042    1.6374 H         1 <0>         0.1355
     52 H16        10.6225    5.6913    0.4427 H         1 <0>         0.0884
     53 H17         9.4634    4.0037   -0.7990 H         1 <0>         0.1035
     54 H18         8.1461    3.8217    0.3858 H         1 <0>         0.1564
     55 H19        14.0476    4.9458    0.5406 H         1 <0>         0.1517
     56 H20        12.3921    5.3844    0.0554 H         1 <0>         0.1284
     57 H21        12.6469    7.4209    1.2696 H         1 <0>         0.4304
     58 H22        14.8884    6.9070   -0.5555 H         1 <0>         0.1466
     59 H23        13.2329    7.3455   -1.0407 H         1 <0>         0.1491
     60 H24        12.5111    9.5928   -0.9908 H         1 <0>         0.1558
     61 H25        13.0560   11.9760   -0.7059 H         1 <0>         0.1621
     62 H26        16.7594   10.9108    1.1302 H         1 <0>         0.1665
     63 H27        14.1793    7.0149    1.7188 H         1 <0>         0.4360
     64 H28         8.6760   -0.4109   -0.9272 H         1 <0>         0.4370
     65 H29        11.7789    3.5306    0.0656 H         1 <0>         0.4159
@<TRIPOS>BOND
     1    1    5 2
     2    1    2 1
     3    1   39 1
     4    2    3 2
     5    2   40 1
     6    3    4 1
     7    3    6 1
     8    4    5 1
     9    5   41 1
    10    6   14 2
    11    6    7 1
    12    7    8 2
    13    8   13 1
    14    8    9 1
    15    9   10 2
    16   10   11 1
    17   10   16 1
    18   11   12 1
    19   11   64 1
    20   12   13 1
    21   12   15 2
    22   13   14 1
    23   15   42 1
    24   16   27 1
    25   16   17 1
    26   17   18 1
    27   17   43 1
    28   17   44 1
    29   18   19 1
    30   18   45 1
    31   18   46 1
    32   19   25 1
    33   19   20 1
    34   19   65 1
    35   20   21 1
    36   20   47 1
    37   20   48 1
    38   21   22 1
    39   21   23 1
    40   21   28 1
    41   23   24 1
    42   23   49 1
    43   23   50 1
    44   24   25 1
    45   24   51 1
    46   24   52 1
    47   25   26 1
    48   25   27 1
    49   27   53 1
    50   27   54 1
    51   28   29 1
    52   28   55 1
    53   28   56 1
    54   29   30 1
    55   29   57 1
    56   29   63 1
    57   30   31 1
    58   30   58 1
    59   30   59 1
    60   31   36 ar
    61   31   32 ar
    62   32   33 ar
    63   32   60 1
    64   33   34 ar
    65   33   61 1
    66   34   35 ar
    67   34   38 1
    68   35   36 ar
    69   35   62 1
    70   36   37 1
