@<TRIPOS>MOLECULE
CHEMBL1087462
   48    52     0     0     0
SMALL
USER_CHARGES

@<TRIPOS>ATOM
      1 C1          1.0372    2.2649   -0.9068 C.ar      1 <0>        -0.0940
      2 C2          2.3150    2.7951   -0.9003 C.ar      1 <0>        -0.1343
      3 C3          3.4099    1.9627   -0.7903 C.ar      1 <0>        -0.0668
      4 C4          3.2264    0.5840   -0.6856 C.ar      1 <0>        -0.0794
      5 C5          1.9356    0.0554   -0.6929 C.ar      1 <0>        -0.0600
      6 C6          0.8487    0.8982   -0.8033 C.ar      1 <0>        -0.1273
      7 C7          4.3974   -0.3153   -0.5678 C.ar      1 <0>         0.3400
      8 C8          4.3321   -1.4789    0.2139 C.ar      1 <0>        -0.3504
      9 C9          5.4726   -2.3026    0.2949 C.ar      1 <0>         0.3158
     10 N1          6.5628   -1.9490   -0.3695 N.ar      1 <0>        -0.5445
     11 C10         6.5847   -0.8388   -1.1000 C.ar      1 <0>         0.6003
     12 N2          5.5347   -0.0397   -1.2064 N.ar      1 <0>        -0.5720
     13 N3          7.7416   -0.5099   -1.7749 N.pl3     1 <0>        -0.8058
     14 C11         5.1578   -3.4587    1.1720 C.ar      1 <0>        -0.0152
     15 C12         5.9151   -4.5481    1.5791 C.ar      1 <0>        -0.0335
     16 C13         5.3627   -5.5022    2.4200 C.ar      1 <0>        -0.0918
     17 C14         4.0593   -5.3771    2.8582 C.ar      1 <0>        -0.1034
     18 C15         3.2901   -4.2949    2.4600 C.ar      1 <0>        -0.0503
     19 C16         3.8317   -3.3327    1.6186 C.ar      1 <0>        -0.1478
     20 C17         3.2711   -2.0886    1.0330 C.2       1 <0>         0.4638
     21 O1          2.1483   -1.6552    1.1987 O.2       1 <0>        -0.4148
     22 C18         7.3386   -4.6945    1.1063 C.3       1 <0>         0.0944
     23 N4          7.3463   -5.1251   -0.2981 N.3       1 <0>        -0.5208
     24 C19         6.9260   -6.5285   -0.4211 C.3       1 <0>         0.0148
     25 C20         6.8909   -6.9172   -1.9015 C.3       1 <0>         0.0648
     26 O2          8.1775   -6.6845   -2.4810 O.3       1 <0>        -0.3852
     27 C21         8.6178   -5.3276   -2.3795 C.3       1 <0>         0.0647
     28 C22         8.6704   -4.9228   -0.9039 C.3       1 <0>         0.0251
     29 H1          0.1832    2.9209   -0.9886 H         1 <0>         0.1260
     30 H2          2.4559    3.8628   -0.9817 H         1 <0>         0.1277
     31 H3          4.4070    2.3777   -0.7856 H         1 <0>         0.1288
     32 H4          1.7872   -1.0113   -0.6125 H         1 <0>         0.1345
     33 H5         -0.1512    0.4902   -0.8087 H         1 <0>         0.1284
     34 H6          8.5203   -1.0848   -1.7114 H         1 <0>         0.4175
     35 H7          7.7766    0.2964   -2.3130 H         1 <0>         0.4197
     36 H8          5.9556   -6.3485    2.7341 H         1 <0>         0.1358
     37 H9          3.6376   -6.1252    3.5130 H         1 <0>         0.1405
     38 H10         2.2706   -4.2004    2.8039 H         1 <0>         0.1402
     39 H11         7.8513   -3.7368    1.1955 H         1 <0>         0.0955
     40 H12         7.8496   -5.4385    1.7174 H         1 <0>         0.0487
     41 H13         7.6338   -7.1680    0.1063 H         1 <0>         0.0442
     42 H14         5.9327   -6.6502    0.0108 H         1 <0>         0.0849
     43 H15         6.6352   -7.9727   -1.9948 H         1 <0>         0.0978
     44 H16         6.1444   -6.3142   -2.4185 H         1 <0>         0.0576
     45 H17         9.6111   -5.2334   -2.8184 H         1 <0>         0.0972
     46 H18         7.9216   -4.6783   -2.9104 H         1 <0>         0.0577
     47 H19         8.9504   -3.8724   -0.8244 H         1 <0>         0.0897
     48 H20         9.4061   -5.5366   -0.3841 H         1 <0>         0.0414
@<TRIPOS>BOND
     1    1    6 ar
     2    1    2 ar
     3    1   29 1
     4    2    3 ar
     5    2   30 1
     6    3    4 ar
     7    3   31 1
     8    4    5 ar
     9    4    7 1
    10    5    6 ar
    11    5   32 1
    12    6   33 1
    13    7   12 ar
    14    7    8 ar
    15    8   20 1
    16    8    9 ar
    17    9   10 ar
    18    9   14 1
    19   10   11 ar
    20   11   12 ar
    21   11   13 1
    22   13   34 1
    23   13   35 1
    24   14   19 ar
    25   14   15 ar
    26   15   16 ar
    27   15   22 1
    28   16   17 ar
    29   16   36 1
    30   17   18 ar
    31   17   37 1
    32   18   19 ar
    33   18   38 1
    34   19   20 1
    35   20   21 2
    36   22   23 1
    37   22   39 1
    38   22   40 1
    39   23   28 1
    40   23   24 1
    41   24   25 1
    42   24   41 1
    43   24   42 1
    44   25   26 1
    45   25   43 1
    46   25   44 1
    47   26   27 1
    48   27   28 1
    49   27   45 1
    50   27   46 1
    51   28   47 1
    52   28   48 1
