@<TRIPOS>MOLECULE
CHEMBL605461
   46    49     0     0     0
SMALL
USER_CHARGES

@<TRIPOS>ATOM
      1 C1         -0.0167    1.3781    0.0096 C.2       1 <0>        -0.1533
      2 C2          1.1597    2.0514    0.0020 C.2       1 <0>        -0.1695
      3 S1          2.3478    0.7191   -0.0165 S.3       1 <0>         0.0371
      4 C3          1.1962   -0.6452   -0.0128 C.2       1 <0>        -0.1654
      5 C4          0.0021   -0.0041    0.0020 C.2       1 <0>        -0.1211
      6 C5         -1.2859   -0.7864    0.0106 C.3       1 <0>        -0.0636
      7 C6         -1.7361   -1.0435   -1.4289 C.3       1 <0>         0.0847
      8 O1         -2.9574   -1.7853   -1.4207 O.3       1 <0>        -0.2862
      9 C7         -3.4952   -2.0982   -2.6245 C.ar      1 <0>         0.5685
     10 N1         -2.8672   -1.7106   -3.7256 N.ar      1 <0>        -0.6308
     11 C8         -3.3536   -1.9926   -4.9292 C.ar      1 <0>         0.5419
     12 C9         -4.5562   -2.7154   -5.0152 C.ar      1 <0>        -0.1304
     13 C10        -5.1852   -3.1045   -3.8214 C.ar      1 <0>         0.3412
     14 N2         -4.6242   -2.7835   -2.6595 N.ar      1 <0>        -0.5681
     15 N3         -6.3180   -3.7828   -4.1939 N.pl3     1 <0>        -0.4598
     16 C11        -6.3577   -3.7946   -5.5575 C.2       1 <0>         0.2840
     17 N4         -5.3234   -3.1680   -6.0371 N.2       1 <0>        -0.4615
     18 C12        -7.3038   -4.3848   -3.2928 C.3       1 <0>         0.3166
     19 C13        -8.3854   -3.3446   -2.9067 C.3       1 <0>         0.0749
     20 H1         -8.0751   -2.7576   -2.0423 H         1 <0>         0.0982
     21 C14        -9.5768   -4.2758   -2.5526 C.3       1 <0>         0.0486
     22 H2         -9.5030   -4.6257   -1.5230 H         1 <0>         0.0917
     23 C15        -9.3863   -5.4432   -3.5447 C.3       1 <0>         0.0600
     24 H3        -10.0380   -5.3054   -4.4074 H         1 <0>         0.1082
     25 O2         -8.0167   -5.4357   -3.9641 O.3       1 <0>        -0.3495
     26 C16        -9.7125   -6.7692   -2.8546 C.3       1 <0>         0.0646
     27 O3         -9.6469   -7.8313   -3.8083 O.3       1 <0>        -0.5615
     28 O4        -10.8234   -3.6131   -2.7741 O.3       1 <0>        -0.5428
     29 O5         -8.7035   -2.4977   -4.0129 O.3       1 <0>        -0.5335
     30 N5         -2.6913   -1.5834   -6.0730 N.pl3     1 <0>        -0.8124
     31 H4         -0.9545    1.9134    0.0259 H         1 <0>         0.1354
     32 H5          1.3332    3.1174    0.0058 H         1 <0>         0.1867
     33 H6          1.3986   -1.7060   -0.0210 H         1 <0>         0.1868
     34 H7         -1.1294   -1.7384    0.5178 H         1 <0>         0.0848
     35 H8         -2.0533   -0.2172    0.5351 H         1 <0>         0.0841
     36 H9         -1.8927   -0.0914   -1.9361 H         1 <0>         0.0722
     37 H10        -0.9687   -1.6127   -1.9534 H         1 <0>         0.0726
     38 H11        -7.1331   -4.2559   -6.1510 H         1 <0>         0.2207
     39 H12        -6.8127   -4.7713   -2.3997 H         1 <0>         0.1279
     40 H13        -8.9912   -6.9512   -2.0579 H         1 <0>         0.0556
     41 H14       -10.7162   -6.7217   -2.4321 H         1 <0>         0.0614
     42 H15        -9.8429   -8.7036   -3.4397 H         1 <0>         0.3843
     43 H16       -11.5982   -4.1535   -2.5673 H         1 <0>         0.3906
     44 H17        -9.3762   -1.8312   -3.8172 H         1 <0>         0.3935
     45 H18        -1.8623   -1.0848   -6.0013 H         1 <0>         0.4107
     46 H19        -3.0560   -1.7951   -6.9465 H         1 <0>         0.4221
@<TRIPOS>BOND
     1    1    5 1
     2    1    2 2
     3    1   31 1
     4    2    3 1
     5    2   32 1
     6    3    4 1
     7    4    5 2
     8    4   33 1
     9    5    6 1
    10    6    7 1
    11    6   34 1
    12    6   35 1
    13    7    8 1
    14    7   36 1
    15    7   37 1
    16    8    9 1
    17    9   14 ar
    18    9   10 ar
    19   10   11 ar
    20   11   12 ar
    21   11   30 1
    22   12   17 1
    23   12   13 ar
    24   13   14 ar
    25   13   15 1
    26   15   16 1
    27   15   18 1
    28   16   17 2
    29   16   38 1
    30   18   25 1
    31   18   19 1
    32   18   39 1
    33   19   20 1
    34   19   21 1
    35   19   29 1
    36   21   22 1
    37   21   23 1
    38   21   28 1
    39   23   24 1
    40   23   25 1
    41   23   26 1
    42   26   27 1
    43   26   40 1
    44   26   41 1
    45   27   42 1
    46   28   43 1
    47   29   44 1
    48   30   45 1
    49   30   46 1
