@<TRIPOS>MOLECULE
CHEMBL603783
   54    57     0     0     0
SMALL
USER_CHARGES

@<TRIPOS>ATOM
      1 C1         -0.0187    1.5258    0.0104 C.3       1 <0>        -0.1679
      2 C2          0.0021   -0.0041    0.0020 C.3       1 <0>         0.1136
      3 N1          0.6878   -0.4765   -1.2033 N.am      1 <0>        -0.7271
      4 C3          0.8268   -1.7986   -1.4250 C.2       1 <0>         0.5162
      5 O1          0.3843   -2.5972   -0.6267 O.2       1 <0>        -0.5035
      6 C4          1.5322   -2.2846   -2.6649 C.3       1 <0>         0.0315
      7 H1          2.5323   -1.8560   -2.7290 H         1 <0>         0.1227
      8 C5          0.7085   -1.9402   -3.9319 C.3       1 <0>         0.0511
      9 H2         -0.3595   -2.0480   -3.7427 H         1 <0>         0.0953
     10 C6          1.2015   -3.0074   -4.9392 C.3       1 <0>         0.0824
     11 H3          0.3680   -3.3897   -5.5285 H         1 <0>         0.0902
     12 C7          1.7901   -4.1212   -4.0517 C.3       1 <0>         0.3129
     13 O2          1.5952   -3.7270   -2.6817 O.3       1 <0>        -0.3263
     14 N2          1.0956   -5.3847   -4.3118 N.pl3     1 <0>        -0.4728
     15 C8          0.0371   -5.8826   -3.6116 C.2       1 <0>         0.2731
     16 N3         -0.3305   -7.0259   -4.1137 N.2       1 <0>        -0.4567
     17 C9          0.4656   -7.3344   -5.1647 C.ar      1 <0>        -0.0978
     18 C10         1.3874   -6.2818   -5.3089 C.ar      1 <0>         0.3121
     19 N4          2.2866   -6.3378   -6.2830 N.ar      1 <0>        -0.5283
     20 C11         2.3169   -7.3703   -7.1145 C.ar      1 <0>         0.4936
     21 N5          1.4623   -8.3848   -7.0165 N.ar      1 <0>        -0.5685
     22 C12         0.5371   -8.4123   -6.0657 C.ar      1 <0>         0.5149
     23 N6         -0.3489   -9.4714   -5.9722 N.pl3     1 <0>        -0.8128
     24 C13         3.3026   -7.3937   -8.1530 C.1       1 <0>        -0.0844
     25 C14         4.1107   -7.4129   -9.0044 C.1       1 <0>        -0.1279
     26 C15         5.1240   -7.4370  -10.0719 C.3       1 <0>         0.2676
     27 C16         4.9671   -8.6960  -10.8850 C.ar      1 <0>        -0.1196
     28 C17         4.0640   -8.7354  -11.9308 C.ar      1 <0>        -0.1041
     29 C18         3.9201   -9.8903  -12.6767 C.ar      1 <0>        -0.1164
     30 C19         4.6797  -11.0057  -12.3772 C.ar      1 <0>        -0.1133
     31 C20         5.5835  -10.9661  -11.3319 C.ar      1 <0>        -0.1172
     32 C21         5.7304   -9.8098  -10.5888 C.ar      1 <0>        -0.1014
     33 O3          4.9513   -6.2986  -10.9183 O.3       1 <0>        -0.5364
     34 O4          2.2079   -2.4612   -5.7941 O.3       1 <0>        -0.5307
     35 O5          1.0116   -0.6227   -4.3947 O.3       1 <0>        -0.5358
     36 H4          1.0039    1.9031    0.0027 H         1 <0>         0.0646
     37 H5         -0.5459    1.8868   -0.8726 H         1 <0>         0.0637
     38 H6         -0.5289    1.8773    0.9072 H         1 <0>         0.0793
     39 H7          0.5293   -0.3651    0.8851 H         1 <0>         0.0731
     40 H8         -1.0205   -0.3814    0.0098 H         1 <0>         0.0728
     41 H9          1.0417    0.1622   -1.8418 H         1 <0>         0.3980
     42 H10         2.8552   -4.2328   -4.2545 H         1 <0>         0.1330
     43 H11        -0.4277   -5.3998   -2.7647 H         1 <0>         0.2281
     44 H12        -1.0284   -9.4756   -5.2800 H         1 <0>         0.4219
     45 H13        -0.2903  -10.2095   -6.5988 H         1 <0>         0.4128
     46 H14         6.1195   -7.4124   -9.6286 H         1 <0>         0.1374
     47 H15         3.4705   -7.8639  -12.1649 H         1 <0>         0.1214
     48 H16         3.2140   -9.9212  -13.4933 H         1 <0>         0.1253
     49 H17         4.5668  -11.9082  -12.9595 H         1 <0>         0.1243
     50 H18         6.1767  -11.8376  -11.0977 H         1 <0>         0.1260
     51 H19         6.4392   -9.7776   -9.7745 H         1 <0>         0.1267
     52 H20         4.0857   -6.2552  -11.3473 H         1 <0>         0.3812
     53 H21         1.9048   -1.7181   -6.3335 H         1 <0>         0.3974
     54 H22         0.8031    0.0753   -3.7587 H         1 <0>         0.3844
@<TRIPOS>BOND
     1    1    2 1
     2    1   36 1
     3    1   37 1
     4    1   38 1
     5    2    3 1
     6    2   39 1
     7    2   40 1
     8    3    4 am
     9    3   41 1
    10    4    5 2
    11    4    6 1
    12    6    7 1
    13    6   13 1
    14    6    8 1
    15    8    9 1
    16    8   10 1
    17    8   35 1
    18   10   11 1
    19   10   12 1
    20   10   34 1
    21   12   13 1
    22   12   14 1
    23   12   42 1
    24   14   18 1
    25   14   15 1
    26   15   16 2
    27   15   43 1
    28   16   17 1
    29   17   22 ar
    30   17   18 ar
    31   18   19 ar
    32   19   20 ar
    33   20   21 ar
    34   20   24 1
    35   21   22 ar
    36   22   23 1
    37   23   44 1
    38   23   45 1
    39   24   25 3
    40   25   26 1
    41   26   27 1
    42   26   33 1
    43   26   46 1
    44   27   32 ar
    45   27   28 ar
    46   28   29 ar
    47   28   47 1
    48   29   30 ar
    49   29   48 1
    50   30   31 ar
    51   30   49 1
    52   31   32 ar
    53   31   50 1
    54   32   51 1
    55   33   52 1
    56   34   53 1
    57   35   54 1
