@<TRIPOS>MOLECULE
CHEMBL457102
   42    45     0     0     0
SMALL
USER_CHARGES

@<TRIPOS>ATOM
      1 C1         -0.0123    1.3843    0.0831 C.ar      1 <0>        -0.0939
      2 C2          1.0818    1.9667   -0.5320 C.ar      1 <0>        -0.1258
      3 C3          2.2888    1.3001   -0.5745 C.ar      1 <0>        -0.0632
      4 C4          2.4049    0.0356    0.0048 C.ar      1 <0>        -0.1506
      5 C5          1.2975   -0.5462    0.6237 C.ar      1 <0>        -0.0863
      6 C6          0.0961    0.1310    0.6593 C.ar      1 <0>        -0.1234
      7 C7          3.6964   -0.6853   -0.0375 C.2       1 <0>         0.4769
      8 O1          4.7380   -0.0633   -0.1576 O.2       1 <0>        -0.4349
      9 C8          3.7224   -2.0917    0.0611 C.2       1 <0>        -0.3419
     10 C9          4.8210   -2.9656    0.1662 C.2       1 <0>         0.2927
     11 N1          4.5248   -4.2488    0.2432 N.2       1 <0>        -0.5851
     12 C10         3.2758   -4.6702    0.2220 C.2       1 <0>         0.3327
     13 S1          2.3707   -3.2579    0.0954 S.3       1 <0>         0.1668
     14 N2          2.8176   -5.9668    0.2934 N.pl3     1 <0>        -0.6633
     15 C11         1.3785   -6.2384    0.2541 C.3       1 <0>         0.1188
     16 C12         1.1414   -7.7469    0.3491 C.3       1 <0>        -0.0423
     17 C13        -0.3390   -8.0262    0.3087 C.2       1 <0>        -0.1541
     18 C14        -1.1340   -8.2627   -0.7633 C.2       1 <0>        -0.1446
     19 C15        -2.4809   -8.4979   -0.5601 C.2       1 <0>        -0.1599
     20 C16        -2.9669   -8.4850    0.7052 C.2       1 <0>        -0.1650
     21 S2         -1.4991   -8.1393    1.6609 S.3       1 <0>         0.0430
     22 C17         6.2101   -2.4793    0.1881 C.2       1 <0>         0.0240
     23 C18         7.2384   -3.0249    0.8980 C.2       1 <0>        -0.1477
     24 C19         8.3772   -2.2457    0.6246 C.2       1 <0>        -0.2262
     25 C20         7.9960   -1.2727   -0.2289 C.2       1 <0>        -0.0122
     26 O2          6.6888   -1.4203   -0.4946 O.3       1 <0>        -0.1323
     27 H1         -0.9539    1.9122    0.1176 H         1 <0>         0.1287
     28 H2          0.9905    2.9450   -0.9802 H         1 <0>         0.1308
     29 H3          3.1419    1.7556   -1.0552 H         1 <0>         0.1342
     30 H4          1.3808   -1.5246    1.0735 H         1 <0>         0.1268
     31 H5         -0.7615   -0.3179    1.1382 H         1 <0>         0.1304
     32 H6          3.4476   -6.7004    0.3698 H         1 <0>         0.4193
     33 H7          0.8917   -5.7405    1.0927 H         1 <0>         0.0815
     34 H8          0.9635   -5.8636   -0.6816 H         1 <0>         0.0829
     35 H9          1.6281   -8.2448   -0.4895 H         1 <0>         0.0997
     36 H10         1.5564   -8.1217    1.2848 H         1 <0>         0.0930
     37 H11        -0.7214   -8.2670   -1.7614 H         1 <0>         0.1348
     38 H12        -3.1363   -8.6886   -1.3971 H         1 <0>         0.1363
     39 H13        -3.9786   -8.6462    1.0468 H         1 <0>         0.1876
     40 H14         7.1882   -3.8880    1.5452 H         1 <0>         0.1518
     41 H15         9.3694   -2.3974    1.0232 H         1 <0>         0.1529
     42 H16         8.6377   -0.5045   -0.6345 H         1 <0>         0.2073
@<TRIPOS>BOND
     1    1    6 ar
     2    1    2 ar
     3    1   27 1
     4    2    3 ar
     5    2   28 1
     6    3    4 ar
     7    3   29 1
     8    4    5 ar
     9    4    7 1
    10    5    6 ar
    11    5   30 1
    12    6   31 1
    13    7    8 2
    14    7    9 1
    15    9   13 1
    16    9   10 2
    17   10   11 1
    18   10   22 1
    19   11   12 2
    20   12   13 1
    21   12   14 1
    22   14   15 1
    23   14   32 1
    24   15   16 1
    25   15   33 1
    26   15   34 1
    27   16   17 1
    28   16   35 1
    29   16   36 1
    30   17   21 1
    31   17   18 2
    32   18   19 1
    33   18   37 1
    34   19   20 2
    35   19   38 1
    36   20   21 1
    37   20   39 1
    38   22   26 1
    39   22   23 2
    40   23   24 1
    41   23   40 1
    42   24   25 2
    43   24   41 1
    44   25   26 1
    45   25   42 1
