@<TRIPOS>MOLECULE
CHEMBL513681
   47    50     0     0     0
SMALL
USER_CHARGES

@<TRIPOS>ATOM
      1 C1          0.0043    1.3962   -0.0055 C.3       1 <0>         0.0824
      2 N1          0.0134   -0.0688   -0.0035 N.am      1 <0>        -0.5223
      3 C2         -1.1850   -0.7707    0.0026 C.2       1 <0>         0.1483
      4 C3         -2.5289   -0.3872    0.0071 C.2       1 <0>        -0.1919
      5 C4         -3.2884   -1.5229    0.0117 C.2       1 <0>         0.1464
      6 N2         -2.4584   -2.6090    0.0101 N.pl3     1 <0>        -0.5011
      7 H1         -2.7399   -3.5372    0.0123 H         1 <0>         0.4304
      8 C5         -1.1537   -2.1630    0.0045 C.2       1 <0>        -0.1012
      9 C6          0.1002   -2.8152    0.0013 C.2       1 <0>         0.5863
     10 O1          0.1604   -4.0319    0.0025 O.2       1 <0>        -0.5163
     11 N3          1.2289   -2.0780   -0.0034 N.am      1 <0>        -0.5511
     12 C7          1.1837   -0.7349   -0.0130 C.2       1 <0>         0.7006
     13 O2          2.2245   -0.1061   -0.0232 O.2       1 <0>        -0.5405
     14 C8          2.5289   -2.7537   -0.0067 C.3       1 <0>         0.0827
     15 C9         -4.7660   -1.5695    0.0179 C.ar      1 <0>        -0.0214
     16 C10        -5.5047   -0.3852    0.0136 C.ar      1 <0>        -0.0913
     17 C11        -6.8833   -0.4357    0.0189 C.ar      1 <0>        -0.0852
     18 C12        -7.5338   -1.6568    0.0285 C.ar      1 <0>        -0.0898
     19 C13        -6.8076   -2.8345    0.0332 C.ar      1 <0>        -0.0840
     20 C14        -5.4285   -2.7980    0.0222 C.ar      1 <0>        -0.1126
     21 C15        -9.0401   -1.7043    0.0342 C.3       1 <0>         0.1253
     22 O3         -9.5211   -1.7273   -1.3112 O.3       1 <0>        -0.3546
     23 C16       -10.8561   -1.7704   -1.4825 C.2       1 <0>         0.6502
     24 O4        -11.5925   -1.7880   -0.5159 O.2       1 <0>        -0.5511
     25 N4        -11.3755   -1.7939   -2.7259 N.am      1 <0>        -0.6379
     26 C17       -12.7628   -1.9541   -2.9065 C.2       1 <0>         0.1120
     27 C18       -13.3832   -1.4854   -4.0537 C.2       1 <0>        -0.1737
     28 C19       -14.7203   -1.6569   -4.1939 C.2       1 <0>        -0.1545
     29 S1        -15.1482   -2.5012   -2.6804 S.3       1 <0>         0.0609
     30 C20       -13.5160   -2.5760   -1.9613 C.2       1 <0>        -0.1773
     31 H2          1.0296    1.7659   -0.0153 H         1 <0>         0.1029
     32 H3         -0.5198    1.7550   -0.8914 H         1 <0>         0.0775
     33 H4         -0.5038    1.7576    0.8885 H         1 <0>         0.0778
     34 H5         -2.9009    0.6267    0.0071 H         1 <0>         0.1608
     35 H6          2.8479   -2.9227   -1.0352 H         1 <0>         0.0758
     36 H7          3.2634   -2.1308    0.5038 H         1 <0>         0.0959
     37 H8          2.4425   -3.7102    0.5088 H         1 <0>         0.0943
     38 H9         -4.9981    0.5686    0.0065 H         1 <0>         0.1377
     39 H10        -7.4560    0.4799    0.0160 H         1 <0>         0.1345
     40 H11        -7.3214   -3.7844    0.0414 H         1 <0>         0.1324
     41 H12        -4.8628   -3.7180    0.0213 H         1 <0>         0.1247
     42 H13        -9.3733   -2.6023    0.5546 H         1 <0>         0.0829
     43 H14        -9.4294   -0.8232    0.5443 H         1 <0>         0.0838
     44 H15       -10.7937   -1.7006   -3.4964 H         1 <0>         0.4174
     45 H16       -12.8101   -0.9908   -4.8240 H         1 <0>         0.1414
     46 H17       -15.3615   -1.3592   -5.0104 H         1 <0>         0.1932
     47 H18       -13.2072   -3.0035   -1.0188 H         1 <0>         0.1988
@<TRIPOS>BOND
     1    1    2 1
     2    1   31 1
     3    1   32 1
     4    1   33 1
     5    2   12 am
     6    2    3 1
     7    3    8 2
     8    3    4 1
     9    4    5 2
    10    4   34 1
    11    5    6 1
    12    5   15 1
    13    6    7 1
    14    6    8 1
    15    8    9 1
    16    9   10 2
    17    9   11 am
    18   11   12 am
    19   11   14 1
    20   12   13 2
    21   14   35 1
    22   14   36 1
    23   14   37 1
    24   15   20 ar
    25   15   16 ar
    26   16   17 ar
    27   16   38 1
    28   17   18 ar
    29   17   39 1
    30   18   19 ar
    31   18   21 1
    32   19   20 ar
    33   19   40 1
    34   20   41 1
    35   21   22 1
    36   21   42 1
    37   21   43 1
    38   22   23 1
    39   23   24 2
    40   23   25 am
    41   25   26 1
    42   25   44 1
    43   26   30 2
    44   26   27 1
    45   27   28 2
    46   27   45 1
    47   28   29 1
    48   28   46 1
    49   29   30 1
    50   30   47 1
