@<TRIPOS>MOLECULE
CHEMBL340868
   64    67     0     0     0
SMALL
USER_CHARGES

@<TRIPOS>ATOM
      1 C1          0.3277    0.2630    1.7127 C.3       1 <0>        -0.1531
      2 C2         -0.0841   -1.1431    2.1534 C.3       1 <0>         0.0621
      3 O1         -1.3846   -1.4409    1.6417 O.3       1 <0>        -0.3495
      4 C3         -1.8978   -2.6503    1.9414 C.2       1 <0>         0.5111
      5 O2         -1.2585   -3.4306    2.6188 O.2       1 <0>        -0.5017
      6 C4         -3.2350   -3.0267    1.4475 C.ar      1 <0>        -0.1578
      7 C5         -4.0295   -2.0837    0.7900 C.ar      1 <0>        -0.0110
      8 C6         -5.2795   -2.4349    0.3266 C.ar      1 <0>        -0.1321
      9 C7         -5.7466   -3.7318    0.5140 C.ar      1 <0>         0.2106
     10 C8         -4.9584   -4.6739    1.1706 C.ar      1 <0>        -0.1738
     11 C9         -3.7084   -4.3294    1.6309 C.ar      1 <0>         0.0195
     12 C10        -2.8541   -5.3518    2.3352 C.3       1 <0>        -0.1228
     13 N1         -7.0037   -4.0969    0.0416 N.pl3     1 <0>        -0.6378
     14 C11        -7.6308   -3.3280   -0.9087 C.2       1 <0>         0.2926
     15 C12        -7.2401   -2.0483   -1.1408 C.2       1 <0>        -0.2527
     16 C13        -6.1226   -1.4050   -0.3741 C.3       1 <0>         0.0598
     17 C14        -6.7033   -0.4631    0.6489 C.2       1 <0>        -0.1324
     18 C15        -6.4269    0.8321    0.5896 C.2       1 <0>        -0.1006
     19 C16        -6.9964    1.7560    1.5930 C.ar      1 <0>        -0.0513
     20 C17        -7.8207    1.2673    2.6073 C.ar      1 <0>        -0.1156
     21 C18        -8.3491    2.1350    3.5408 C.ar      1 <0>        -0.1186
     22 C19        -8.0638    3.4869    3.4725 C.ar      1 <0>        -0.1221
     23 C20        -7.2477    3.9779    2.4691 C.ar      1 <0>        -0.1190
     24 C21        -6.7075    3.1198    1.5333 C.ar      1 <0>        -0.1089
     25 C22        -7.9046   -1.3021   -2.1317 C.2       1 <0>         0.5167
     26 O3         -8.7399   -1.8364   -2.8385 O.2       1 <0>        -0.5086
     27 O4         -7.6159    0.0064   -2.2989 O.3       1 <0>        -0.3472
     28 C23        -8.3286    0.7023   -3.3235 C.3       1 <0>         0.0655
     29 C24        -7.8702    2.1615   -3.3625 C.3       1 <0>        -0.1515
     30 C25        -8.7455   -3.9017   -1.6896 C.ar      1 <0>        -0.0631
     31 C26        -8.5094   -4.9458   -2.5865 C.ar      1 <0>        -0.0913
     32 C27        -9.5552   -5.4771   -3.3121 C.ar      1 <0>        -0.1220
     33 C28       -10.8359   -4.9780   -3.1530 C.ar      1 <0>        -0.1018
     34 C29       -11.0770   -3.9433   -2.2664 C.ar      1 <0>        -0.1196
     35 C30       -10.0415   -3.4064   -1.5301 C.ar      1 <0>        -0.0509
     36 H1          1.3197    0.4902    2.1031 H         1 <0>         0.0804
     37 H2          0.3457    0.3119    0.6240 H         1 <0>         0.0671
     38 H3         -0.3890    0.9888    2.0972 H         1 <0>         0.0674
     39 H4          0.6326   -1.8688    1.7690 H         1 <0>         0.0683
     40 H5         -0.1021   -1.1919    3.2422 H         1 <0>         0.0684
     41 H6         -3.6638   -1.0779    0.6449 H         1 <0>         0.1448
     42 H7         -5.3279   -5.6783    1.3155 H         1 <0>         0.1390
     43 H8         -2.9377   -5.2144    3.4133 H         1 <0>         0.0823
     44 H9         -3.1925   -6.3532    2.0693 H         1 <0>         0.0641
     45 H10        -1.8145   -5.2272    2.0325 H         1 <0>         0.0928
     46 H11        -7.4372   -4.8946    0.3832 H         1 <0>         0.4224
     47 H12        -5.4959   -0.8396   -1.0637 H         1 <0>         0.0961
     48 H13        -7.3445   -0.8432    1.4304 H         1 <0>         0.1110
     49 H14        -5.7857    1.2122   -0.1919 H         1 <0>         0.1219
     50 H15        -8.0447    0.2122    2.6613 H         1 <0>         0.1210
     51 H16        -8.9872    1.7580    4.3264 H         1 <0>         0.1211
     52 H17        -8.4803    4.1621    4.2054 H         1 <0>         0.1207
     53 H18        -7.0293    5.0345    2.4207 H         1 <0>         0.1224
     54 H19        -6.0664    3.5036    0.7535 H         1 <0>         0.1237
     55 H20        -8.1299    0.2331   -4.2871 H         1 <0>         0.0636
     56 H21        -9.3975    0.6627   -3.1136 H         1 <0>         0.0635
     57 H22        -8.4139    2.6923   -4.1441 H         1 <0>         0.0768
     58 H23        -8.0690    2.6307   -2.3989 H         1 <0>         0.0662
     59 H24        -6.8014    2.2011   -3.5724 H         1 <0>         0.0653
     60 H25        -7.5102   -5.3360   -2.7118 H         1 <0>         0.1204
     61 H26        -9.3739   -6.2843   -4.0063 H         1 <0>         0.1248
     62 H27       -11.6511   -5.3977   -3.7237 H         1 <0>         0.1230
     63 H28       -12.0789   -3.5580   -2.1477 H         1 <0>         0.1240
     64 H29       -10.2318   -2.6021   -0.8350 H         1 <0>         0.1169
@<TRIPOS>BOND
     1    1    2 1
     2    1   36 1
     3    1   37 1
     4    1   38 1
     5    2    3 1
     6    2   39 1
     7    2   40 1
     8    3    4 1
     9    4    5 2
    10    4    6 1
    11    6   11 ar
    12    6    7 ar
    13    7    8 ar
    14    7   41 1
    15    8   16 1
    16    8    9 ar
    17    9   10 ar
    18    9   13 1
    19   10   11 ar
    20   10   42 1
    21   11   12 1
    22   12   43 1
    23   12   44 1
    24   12   45 1
    25   13   14 1
    26   13   46 1
    27   14   15 2
    28   14   30 1
    29   15   16 1
    30   15   25 1
    31   16   17 1
    32   16   47 1
    33   17   18 2
    34   17   48 1
    35   18   19 1
    36   18   49 1
    37   19   24 ar
    38   19   20 ar
    39   20   21 ar
    40   20   50 1
    41   21   22 ar
    42   21   51 1
    43   22   23 ar
    44   22   52 1
    45   23   24 ar
    46   23   53 1
    47   24   54 1
    48   25   26 2
    49   25   27 1
    50   27   28 1
    51   28   29 1
    52   28   55 1
    53   28   56 1
    54   29   57 1
    55   29   58 1
    56   29   59 1
    57   30   35 ar
    58   30   31 ar
    59   31   32 ar
    60   31   60 1
    61   32   33 ar
    62   32   61 1
    63   33   34 ar
    64   33   62 1
    65   34   35 ar
    66   34   63 1
    67   35   64 1
