@<TRIPOS>MOLECULE
CHEMBL449596
   33    36     0     0     0
SMALL
USER_CHARGES

@<TRIPOS>ATOM
      1 C1         -0.0167    1.3776    0.0096 C.ar      1 <0>        -0.1768
      2 C2          1.1849    2.0698    0.0019 C.ar      1 <0>        -0.0462
      3 C3          2.3651    1.3426   -0.0133 C.ar      1 <0>        -0.1801
      4 C4          2.3054   -0.0383   -0.0202 C.ar      1 <0>         0.1304
      5 N1          1.1443   -0.6632   -0.0129 N.ar      1 <0>        -0.4848
      6 C5          0.0021   -0.0041    0.0020 C.ar      1 <0>         0.1126
      7 C6          3.6964    2.0488   -0.0227 C.3       1 <0>         0.1831
      8 N2          4.1412    2.2707    1.3554 N.pl3     1 <0>        -0.3833
      9 C7          3.8711    3.3607    2.1360 C.ar      1 <0>         0.3617
     10 C8          4.5052    3.1221    3.3691 C.ar      1 <0>        -0.1549
     11 C9          4.3867    4.1050    4.3788 C.ar      1 <0>         0.4101
     12 N3          3.6835    5.2050    4.1151 N.ar      1 <0>        -0.5505
     13 C10         3.1044    5.3825    2.9357 C.ar      1 <0>         0.6222
     14 N4          3.1901    4.4890    1.9632 N.ar      1 <0>        -0.5822
     15 N5          2.3847    6.5441    2.7134 N.pl3     1 <0>        -0.8028
     16 C11         5.0258    3.9166    5.6917 C.2       1 <0>        -0.0091
     17 C12         5.5706    4.8978    6.4648 C.2       1 <0>        -0.1217
     18 C13         6.0641    4.2726    7.6240 C.2       1 <0>        -0.2249
     19 C14         5.8008    2.9545    7.5060 C.2       1 <0>         0.0022
     20 O1          5.1690    2.7443    6.3414 O.3       1 <0>        -0.1492
     21 N6          5.1189    1.9302    3.2925 N.2       1 <0>        -0.1658
     22 N7          4.9226    1.4037    2.1342 N.2       1 <0>         0.0029
     23 H1         -0.9552    1.9117    0.0259 H         1 <0>         0.1393
     24 H2          1.2009    3.1496    0.0072 H         1 <0>         0.1395
     25 H3          3.2203   -0.6121   -0.0320 H         1 <0>         0.1604
     26 H4         -0.9294   -0.5505    0.0083 H         1 <0>         0.1600
     27 H5          4.4293    1.4355   -0.5468 H         1 <0>         0.1190
     28 H6          3.5953    3.0079   -0.5308 H         1 <0>         0.1142
     29 H7          2.3111    7.2106    3.4143 H         1 <0>         0.4224
     30 H8          1.9542    6.6915    1.8568 H         1 <0>         0.4205
     31 H9          5.6147    5.9516    6.2323 H         1 <0>         0.1596
     32 H10         6.5603    4.7563    8.4524 H         1 <0>         0.1588
     33 H11         6.0528    2.1950    8.2313 H         1 <0>         0.2136
@<TRIPOS>BOND
     1    1    6 ar
     2    1    2 ar
     3    1   23 1
     4    2    3 ar
     5    2   24 1
     6    3    4 ar
     7    3    7 1
     8    4    5 ar
     9    4   25 1
    10    5    6 ar
    11    6   26 1
    12    7    8 1
    13    7   27 1
    14    7   28 1
    15    8   22 1
    16    8    9 1
    17    9   14 ar
    18    9   10 ar
    19   10   11 ar
    20   10   21 1
    21   11   12 ar
    22   11   16 1
    23   12   13 ar
    24   13   14 ar
    25   13   15 1
    26   15   29 1
    27   15   30 1
    28   16   20 1
    29   16   17 2
    30   17   18 1
    31   17   31 1
    32   18   19 2
    33   18   32 1
    34   19   20 1
    35   19   33 1
    36   21   22 2
