@<TRIPOS>MOLECULE
CHEMBL516753
   66    72     0     0     0
SMALL
USER_CHARGES

@<TRIPOS>ATOM
      1 C1         -0.0187    1.5258    0.0104 C.3       1 <0>        -0.1541
      2 C2          0.0021   -0.0041    0.0020 C.3       1 <0>         0.0950
      3 C3          0.7074   -0.4901   -1.2379 C.ar      1 <0>         0.2393
      4 C4          2.0962   -0.6027   -1.2279 C.ar      1 <0>        -0.1496
      5 C5          2.7523   -1.0414   -2.3425 C.ar      1 <0>         0.0460
      6 C6          1.9873   -1.3686   -3.4779 C.ar      1 <0>        -0.0792
      7 C7          2.5918   -1.8267   -4.6597 C.ar      1 <0>        -0.0590
      8 C8          1.8173   -2.1333   -5.7365 C.ar      1 <0>        -0.0555
      9 C9          0.4313   -1.9986   -5.6819 C.ar      1 <0>        -0.0270
     10 C10        -0.1874   -1.5572   -4.5531 C.ar      1 <0>        -0.1372
     11 C11         0.5784   -1.2309   -3.4200 C.ar      1 <0>         0.1348
     12 N1         -0.0022   -0.8007   -2.2953 N.ar      1 <0>        -0.4561
     13 C12         2.4673   -2.6244   -7.0043 C.3       1 <0>        -0.1117
     14 C13         2.5740   -4.1501   -6.9649 C.3       1 <0>         0.1476
     15 N2          3.2059   -4.6275   -8.1974 N.pl3     1 <0>        -0.3648
     16 C14         2.5584   -4.9644   -9.3482 C.2       1 <0>         0.3717
     17 C15         3.5470   -5.3630  -10.2606 C.2       1 <0>        -0.2632
     18 C16         4.7881   -5.2489   -9.6090 C.2       1 <0>         0.1402
     19 N3          4.5797   -4.8105   -8.3978 N.2       1 <0>        -0.2673
     20 C17         3.1205   -5.7828  -11.5959 C.2       1 <0>         0.4034
     21 N4          3.7480   -6.2064  -12.6734 N.2       1 <0>        -0.5113
     22 C18         2.8583   -6.4600  -13.6415 C.2       1 <0>         0.3579
     23 N5          1.6438   -6.2011  -13.1949 N.2       1 <0>        -0.2975
     24 N6          1.7782   -5.7601  -11.8722 N.pl3     1 <0>        -0.3780
     25 C19         0.8921   -5.3552  -10.9166 C.2       1 <0>         0.6979
     26 N7          1.2707   -4.9787   -9.7199 N.2       1 <0>        -0.5709
     27 N8         -0.4492   -5.3421  -11.2208 N.pl3     1 <0>        -0.7998
     28 C20         3.1849   -6.9523  -14.9963 C.2       1 <0>         0.0339
     29 C21         2.2919   -7.2082  -15.9889 C.2       1 <0>        -0.1319
     30 C22         3.0360   -7.6547  -17.0990 C.2       1 <0>        -0.2202
     31 C23         4.3329   -7.6493  -16.7330 C.2       1 <0>         0.0013
     32 O1          4.4195   -7.2197  -15.4638 O.3       1 <0>        -0.1521
     33 N9          0.7126   -0.4907    1.1921 N.3       1 <0>        -0.5245
     34 C24         0.8278   -1.9562    1.1744 C.3       1 <0>         0.0021
     35 C25         1.6245   -2.4149    2.3987 C.3       1 <0>         0.0645
     36 O2          0.9841   -1.9365    3.5845 O.3       1 <0>        -0.3768
     37 C26         0.8558   -0.5130    3.6353 C.3       1 <0>         0.0613
     38 C27         0.0513   -0.0350    2.4235 C.3       1 <0>         0.0148
     39 H1          1.0039    1.9031    0.0027 H         1 <0>         0.0857
     40 H2         -0.5459    1.8868   -0.8726 H         1 <0>         0.0724
     41 H3         -0.5289    1.8773    0.9072 H         1 <0>         0.0924
     42 H4         -1.0205   -0.3814    0.0098 H         1 <0>         0.0814
     43 H5          2.6532   -0.3430   -0.3399 H         1 <0>         0.1934
     44 H6          3.8283   -1.1344   -2.3525 H         1 <0>         0.1821
     45 H7          3.6650   -1.9349   -4.7142 H         1 <0>         0.1634
     46 H8         -0.1613   -2.2483   -6.5495 H         1 <0>         0.1583
     47 H9         -1.2625   -1.4578   -4.5278 H         1 <0>         0.1579
     48 H10         1.8644   -2.3244   -7.8615 H         1 <0>         0.0954
     49 H11         3.4642   -2.1926   -7.0924 H         1 <0>         0.0996
     50 H12         3.1769   -4.4501   -6.1078 H         1 <0>         0.1045
     51 H13         1.5771   -4.5820   -6.8768 H         1 <0>         0.1019
     52 H14         5.7510   -5.4808  -10.0396 H         1 <0>         0.2050
     53 H15        -0.7495   -5.6175  -12.1011 H         1 <0>         0.4288
     54 H16        -1.0948   -5.0576  -10.5551 H         1 <0>         0.4296
     55 H17         1.2195   -7.0920  -15.9365 H         1 <0>         0.1603
     56 H18         2.6415   -7.9464  -18.0611 H         1 <0>         0.1611
     57 H19         5.1647   -7.9387  -17.3580 H         1 <0>         0.2160
     58 H20        -0.1675   -2.3999    1.2007 H         1 <0>         0.0539
     59 H21         1.3430   -2.2698    0.2665 H         1 <0>         0.0824
     60 H22         1.6637   -3.5040    2.4203 H         1 <0>         0.1056
     61 H23         2.6369   -2.0146    2.3449 H         1 <0>         0.0666
     62 H24         0.3390   -0.2265    4.5512 H         1 <0>         0.1094
     63 H25         1.8459   -0.0574    3.6175 H         1 <0>         0.0676
     64 H26        -0.0003    1.0538    2.4274 H         1 <0>         0.1022
     65 H27        -0.9564   -0.4480    2.4698 H         1 <0>         0.0559
     66 H28        -0.9677   -0.7131   -2.2623 H         1 <0>         0.4434
@<TRIPOS>BOND
     1    1    2 1
     2    1   39 1
     3    1   40 1
     4    1   41 1
     5    2    3 1
     6    2   33 1
     7    2   42 1
     8    3   12 ar
     9    3    4 ar
    10    4    5 ar
    11    4   43 1
    12    5    6 ar
    13    5   44 1
    14    6   11 ar
    15    6    7 ar
    16    7    8 ar
    17    7   45 1
    18    8    9 ar
    19    8   13 1
    20    9   10 ar
    21    9   46 1
    22   10   11 ar
    23   10   47 1
    24   11   12 ar
    25   12   66 1
    26   13   14 1
    27   13   48 1
    28   13   49 1
    29   14   15 1
    30   14   50 1
    31   14   51 1
    32   15   19 1
    33   15   16 1
    34   16   26 1
    35   16   17 2
    36   17   18 1
    37   17   20 1
    38   18   19 2
    39   18   52 1
    40   20   24 1
    41   20   21 2
    42   21   22 1
    43   22   23 2
    44   22   28 1
    45   23   24 1
    46   24   25 1
    47   25   26 2
    48   25   27 1
    49   27   53 1
    50   27   54 1
    51   28   32 1
    52   28   29 2
    53   29   30 1
    54   29   55 1
    55   30   31 2
    56   30   56 1
    57   31   32 1
    58   31   57 1
    59   33   38 1
    60   33   34 1
    61   34   35 1
    62   34   58 1
    63   34   59 1
    64   35   36 1
    65   35   60 1
    66   35   61 1
    67   36   37 1
    68   37   38 1
    69   37   62 1
    70   37   63 1
    71   38   64 1
    72   38   65 1
