@<TRIPOS>MOLECULE
CHEMBL1096134
   49    53     0     0     0
SMALL
USER_CHARGES

@<TRIPOS>ATOM
      1 C1         -0.0391    1.4645   -0.0031 C.3       1 <0>         0.0241
      2 N1         -0.0087   -0.0042   -0.0047 N.3       1 <0>        -0.5430
      3 C2         -1.3651   -0.5587   -0.1085 C.3       1 <0>         0.0375
      4 C3         -1.2798   -2.0781   -0.2891 C.3       1 <0>         0.1202
      5 N2         -0.4627   -2.6330    0.8007 N.pl3     1 <0>        -0.6178
      6 C4          0.8569   -2.0353    1.0549 C.3       1 <0>         0.1188
      7 C5          0.6875   -0.5176    1.1826 C.3       1 <0>         0.0384
      8 C6         -0.9252   -3.6943    1.5697 C.ar      1 <0>         0.2509
      9 C7         -2.2180   -4.1694    1.3877 C.ar      1 <0>        -0.1987
     10 C8         -2.6837   -5.2246    2.1487 C.ar      1 <0>         0.0078
     11 C9         -1.8582   -5.8144    3.1008 C.ar      1 <0>        -0.2162
     12 C10        -0.5480   -5.3370    3.2891 C.ar      1 <0>         0.0168
     13 C11        -0.0871   -4.2830    2.5185 C.ar      1 <0>        -0.1497
     14 C12         0.0983   -6.1422    4.3566 C.ar      1 <0>         0.3025
     15 C13        -0.8252   -7.1049    4.8103 C.ar      1 <0>        -0.3399
     16 C14        -0.4308   -7.9870    5.8271 C.ar      1 <0>         0.3366
     17 N3          0.8024   -7.8780    6.3225 N.ar      1 <0>        -0.5698
     18 C15         1.6390   -6.9590    5.8675 C.ar      1 <0>         0.5996
     19 N4          1.3030   -6.1052    4.9056 N.ar      1 <0>        -0.5620
     20 N5          2.9047   -6.8844    6.4109 N.pl3     1 <0>        -0.8063
     21 C16        -1.3640   -9.0167    6.3396 C.ar      1 <0>        -0.0792
     22 C17        -2.7295   -8.7451    6.4227 C.ar      1 <0>        -0.0585
     23 C18        -3.5938   -9.7086    6.9006 C.ar      1 <0>        -0.1275
     24 C19        -3.1085  -10.9421    7.2969 C.ar      1 <0>        -0.0941
     25 C20        -1.7550  -11.2173    7.2173 C.ar      1 <0>        -0.1348
     26 C21        -0.8814  -10.2640    6.7357 C.ar      1 <0>        -0.0670
     27 C22        -2.0730   -6.9347    4.0458 C.2       1 <0>         0.4686
     28 O1         -3.0888   -7.5908    4.1677 O.2       1 <0>        -0.4254
     29 H1          0.9808    1.8490   -0.0025 H         1 <0>         0.0717
     30 H2         -0.5602    1.8180   -0.8929 H         1 <0>         0.0715
     31 H3         -0.5606    1.8161    0.8871 H         1 <0>         0.0269
     32 H4         -1.9216   -0.3312    0.8007 H         1 <0>         0.0406
     33 H5         -1.8734   -0.1184   -0.9663 H         1 <0>         0.0894
     34 H6         -2.2807   -2.5080   -0.2518 H         1 <0>         0.0919
     35 H7         -0.8153   -2.3073   -1.2482 H         1 <0>         0.0776
     36 H8          1.2686   -2.4369    1.9808 H         1 <0>         0.0906
     37 H9          1.5268   -2.2604    0.2250 H         1 <0>         0.0774
     38 H10         1.6677   -0.0475    1.2611 H         1 <0>         0.0893
     39 H11         0.1024   -0.2907    2.0738 H         1 <0>         0.0404
     40 H12        -2.8607   -3.7127    0.6497 H         1 <0>         0.1381
     41 H13        -3.6892   -5.5915    2.0046 H         1 <0>         0.1390
     42 H14         0.9188   -3.9139    2.6541 H         1 <0>         0.1384
     43 H15         3.1678   -7.4990    7.1136 H         1 <0>         0.4202
     44 H16         3.5316   -6.2173    6.0901 H         1 <0>         0.4188
     45 H17        -3.1094   -7.7824    6.1140 H         1 <0>         0.1360
     46 H18        -4.6514   -9.4994    6.9658 H         1 <0>         0.1284
     47 H19        -3.7890  -11.6930    7.6703 H         1 <0>         0.1258
     48 H20        -1.3821  -12.1819    7.5285 H         1 <0>         0.1275
     49 H21         0.1744  -10.4816    6.6698 H         1 <0>         0.1286
@<TRIPOS>BOND
     1    1    2 1
     2    1   29 1
     3    1   30 1
     4    1   31 1
     5    2    7 1
     6    2    3 1
     7    3    4 1
     8    3   32 1
     9    3   33 1
    10    4    5 1
    11    4   34 1
    12    4   35 1
    13    5    6 1
    14    5    8 1
    15    6    7 1
    16    6   36 1
    17    6   37 1
    18    7   38 1
    19    7   39 1
    20    8   13 ar
    21    8    9 ar
    22    9   10 ar
    23    9   40 1
    24   10   11 ar
    25   10   41 1
    26   11   27 1
    27   11   12 ar
    28   12   13 ar
    29   12   14 1
    30   13   42 1
    31   14   19 ar
    32   14   15 ar
    33   15   16 ar
    34   15   27 1
    35   16   17 ar
    36   16   21 1
    37   17   18 ar
    38   18   19 ar
    39   18   20 1
    40   20   43 1
    41   20   44 1
    42   21   26 ar
    43   21   22 ar
    44   22   23 ar
    45   22   45 1
    46   23   24 ar
    47   23   46 1
    48   24   25 ar
    49   24   47 1
    50   25   26 ar
    51   25   48 1
    52   26   49 1
    53   27   28 2
