@<TRIPOS>MOLECULE
CHEMBL166429
   30    31     0     0     0
SMALL
USER_CHARGES

@<TRIPOS>ATOM
      1 C1          0.2327    1.4694    1.1501 C.ar      1 <0>        -0.1978
      2 C2          0.5441    0.2631    1.7622 C.ar      1 <0>        -0.1121
      3 C3          1.6539   -0.4352    1.3831 C.ar      1 <0>        -0.1255
      4 C4          2.4874    0.0753    0.3627 C.ar      1 <0>         0.0832
      5 C5          2.1586    1.3045   -0.2519 C.ar      1 <0>        -0.1843
      6 C6          1.0428    1.9823    0.1463 C.ar      1 <0>        -0.1102
      7 C7          3.6316   -0.6318   -0.0365 C.2       1 <0>        -0.4030
      8 C8          3.6627   -2.0939    0.0660 C.2       1 <0>         0.3555
      9 N1          4.8652   -2.7506    0.1539 N.pl3     1 <0>        -0.5570
     10 N2          4.8949   -4.1478    0.2519 N.2       1 <0>        -0.1691
     11 C9          6.0335   -4.7695    0.3351 C.2       1 <0>         0.0366
     12 C10         6.0647   -6.2391    0.4381 C.ar      1 <0>        -0.0761
     13 C11         7.2855   -6.9216    0.5344 C.ar      1 <0>        -0.0640
     14 C12         7.2592   -8.3011    0.6294 C.ar      1 <0>        -0.1777
     15 C13         6.0410   -8.9576    0.6264 C.ar      1 <0>         0.0932
     16 N3          4.9068   -8.2901    0.5342 N.ar      1 <0>        -0.4850
     17 C14         4.8776   -6.9765    0.4474 C.ar      1 <0>         0.1332
     18 S1          2.2439   -2.9556    0.0757 S.3       1 <0>        -0.7184
     19 H1         -0.6503    2.0117    1.4545 H         1 <0>         0.0953
     20 H2         -0.0946   -0.1245    2.5421 H         1 <0>         0.0977
     21 H3          1.8941   -1.3734    1.8612 H         1 <0>         0.1210
     22 H4          2.7874    1.7059   -1.0329 H         1 <0>         0.0991
     23 H5          0.7890    2.9220   -0.3217 H         1 <0>         0.0964
     24 H6          4.4895   -0.0990   -0.4193 H         1 <0>         0.0927
     25 H7          6.9566   -4.2090    0.3288 H         1 <0>         0.1100
     26 H8          8.2223   -6.3841    0.5341 H         1 <0>         0.1349
     27 H9          8.1800   -8.8603    0.7048 H         1 <0>         0.1341
     28 H10         6.0183  -10.0348    0.7005 H         1 <0>         0.1527
     29 H11         3.9289   -6.4652    0.3781 H         1 <0>         0.1727
     30 H12         5.6943   -2.2471    0.1482 H         1 <0>         0.3719
@<TRIPOS>BOND
     1    1    6 ar
     2    1    2 ar
     3    1   19 1
     4    2    3 ar
     5    2   20 1
     6    3    4 ar
     7    3   21 1
     8    4    5 ar
     9    4    7 1
    10    5    6 ar
    11    5   22 1
    12    6   23 1
    13    7    8 1
    14    7   24 1
    15    8    9 2
    16    8   18 1
    17    9   10 1
    18    9   30 1
    19   10   11 2
    20   11   12 1
    21   11   25 1
    22   12   17 ar
    23   12   13 ar
    24   13   14 ar
    25   13   26 1
    26   14   15 ar
    27   14   27 1
    28   15   16 ar
    29   15   28 1
    30   16   17 ar
    31   17   29 1
