@<TRIPOS>MOLECULE
CHEMBL1087709
   48    52     0     0     0
SMALL
USER_CHARGES

@<TRIPOS>ATOM
      1 C1         -0.0167    1.3793    0.0096 C.ar      1 <0>        -0.0830
      2 C2          1.1685    2.0929    0.0021 C.ar      1 <0>        -0.1315
      3 C3          2.3774    1.4279   -0.0130 C.ar      1 <0>        -0.0619
      4 C4          2.4029    0.0333   -0.0207 C.ar      1 <0>        -0.0965
      5 C5          1.2046   -0.6805   -0.0131 C.ar      1 <0>        -0.0587
      6 C6          0.0021   -0.0041    0.0020 C.ar      1 <0>        -0.1255
      7 C7          3.6972   -0.6866   -0.0375 C.ar      1 <0>         0.3588
      8 C8          3.8485   -1.9053    0.6416 C.ar      1 <0>        -0.3354
      9 C9          5.0995   -2.5526    0.5963 C.ar      1 <0>         0.2803
     10 N1          6.0850   -1.9878   -0.0854 N.ar      1 <0>        -0.5862
     11 C10         5.9016   -0.8324   -0.7162 C.ar      1 <0>         0.6080
     12 N2          4.7422   -0.1938   -0.7026 N.ar      1 <0>        -0.5585
     13 N3          6.9560   -0.2811   -1.4137 N.pl3     1 <0>        -0.8008
     14 C11         5.0091   -3.8087    1.3828 C.ar      1 <0>        -0.0128
     15 C12         5.9398   -4.8012    1.6568 C.ar      1 <0>        -0.1140
     16 C13         5.5832   -5.8911    2.4363 C.ar      1 <0>        -0.0705
     17 C14         4.3040   -5.9981    2.9448 C.ar      1 <0>        -0.0949
     18 C15         3.3631   -5.0152    2.6796 C.ar      1 <0>        -0.0220
     19 C16         3.7079   -3.9189    1.9009 C.ar      1 <0>        -0.1348
     20 C17         2.9384   -2.7304    1.4536 C.2       1 <0>         0.4549
     21 O1          1.7764   -2.4848    1.7094 O.2       1 <0>        -0.3895
     22 C18         7.3386   -4.6945    1.1063 C.3       1 <0>         0.0471
     23 N4          8.1250   -3.7772    1.9419 N.4       1 <0>        -0.3914
     24 C19         8.3644   -4.3797    3.2783 C.3       1 <0>        -0.0090
     25 C20         9.6089   -3.6145    3.7943 C.3       1 <0>        -0.1451
     26 C21        10.4593   -3.4354    2.5157 C.3       1 <0>        -0.1442
     27 C22         9.4634   -3.5674    1.3486 C.3       1 <0>        -0.0062
     28 H1         -0.9604    1.9042    0.0260 H         1 <0>         0.1314
     29 H2          1.1475    3.1726    0.0078 H         1 <0>         0.1323
     30 H3          3.3020    1.9860   -0.0192 H         1 <0>         0.1301
     31 H4          1.2180   -1.7604   -0.0194 H         1 <0>         0.1326
     32 H5         -0.9264   -0.5556    0.0083 H         1 <0>         0.1325
     33 H6          7.8124   -0.7360   -1.4376 H         1 <0>         0.4174
     34 H7          6.8412    0.5615   -1.8803 H         1 <0>         0.4270
     35 H8          6.3105   -6.6613    2.6467 H         1 <0>         0.1482
     36 H9          4.0354   -6.8506    3.5509 H         1 <0>         0.1542
     37 H10         2.3631   -5.1023    3.0782 H         1 <0>         0.1534
     38 H11         7.8060   -5.6792    1.1086 H         1 <0>         0.1407
     39 H12         7.2994   -4.3132    0.0860 H         1 <0>         0.1440
     40 H13         7.5104   -4.2121    3.9345 H         1 <0>         0.1319
     41 H14         8.5779   -5.4447    3.1875 H         1 <0>         0.1357
     42 H15         9.3233   -2.6467    4.2063 H         1 <0>         0.0960
     43 H16        10.1462   -4.2068    4.5350 H         1 <0>         0.1178
     44 H17        10.9250   -2.4499    2.5061 H         1 <0>         0.1042
     45 H18        11.2192   -4.2144    2.4545 H         1 <0>         0.1051
     46 H19         9.7317   -4.4211    0.7263 H         1 <0>         0.1323
     47 H20         9.4665   -2.6546    0.7528 H         1 <0>         0.1310
     48 H21         7.6447   -2.8951    2.0379 H         1 <0>         0.4256
@<TRIPOS>BOND
     1    1    6 ar
     2    1    2 ar
     3    1   28 1
     4    2    3 ar
     5    2   29 1
     6    3    4 ar
     7    3   30 1
     8    4    5 ar
     9    4    7 1
    10    5    6 ar
    11    5   31 1
    12    6   32 1
    13    7   12 ar
    14    7    8 ar
    15    8   20 1
    16    8    9 ar
    17    9   10 ar
    18    9   14 1
    19   10   11 ar
    20   11   12 ar
    21   11   13 1
    22   13   33 1
    23   13   34 1
    24   14   19 ar
    25   14   15 ar
    26   15   16 ar
    27   15   22 1
    28   16   17 ar
    29   16   35 1
    30   17   18 ar
    31   17   36 1
    32   18   19 ar
    33   18   37 1
    34   19   20 1
    35   20   21 2
    36   22   23 1
    37   22   38 1
    38   22   39 1
    39   23   27 1
    40   23   24 1
    41   23   48 1
    42   24   25 1
    43   24   40 1
    44   24   41 1
    45   25   26 1
    46   25   42 1
    47   25   43 1
    48   26   27 1
    49   26   44 1
    50   26   45 1
    51   27   46 1
    52   27   47 1
