@<TRIPOS>MOLECULE
CHEMBL573588
   58    63     0     0     0
SMALL
USER_CHARGES

@<TRIPOS>ATOM
      1 C1         -0.0187    1.5258    0.0104 C.3       1 <0>        -0.1538
      2 C2          0.0021   -0.0041    0.0020 C.3       1 <0>        -0.1212
      3 C3          0.7182   -0.4975   -1.2568 C.3       1 <0>        -0.1354
      4 C4          0.7390   -2.0273   -1.2652 C.3       1 <0>         0.1265
      5 N1          1.4247   -2.4998   -2.4705 N.pl3     1 <0>        -0.3354
      6 C5          2.4724   -3.3422   -2.4846 C.2       1 <0>         0.1578
      7 C6          2.8297   -3.5447   -3.7925 C.2       1 <0>        -0.2677
      8 C7          1.9052   -2.7469   -4.6139 C.2       1 <0>         0.3013
      9 N2          1.0841   -2.1470   -3.7817 N.2       1 <0>        -0.2480
     10 N3          2.0507   -2.7760   -5.9648 N.2       1 <0>        -0.4472
     11 C8          2.9792   -3.4857   -6.5424 C.2       1 <0>         0.6510
     12 N4          3.8820   -4.2574   -5.8618 N.pl3     1 <0>        -0.3751
     13 C9          3.8562   -4.3252   -4.4945 C.2       1 <0>         0.4109
     14 N5          4.8225   -5.1277   -4.1083 N.2       1 <0>        -0.5123
     15 C10         5.4813   -5.5878   -5.1806 C.2       1 <0>         0.3448
     16 N6          4.9394   -5.0831   -6.2716 N.2       1 <0>        -0.2918
     17 C11         6.6313   -6.5153   -5.1461 C.2       1 <0>         0.0432
     18 C12         7.3106   -6.9844   -6.2262 C.2       1 <0>        -0.1369
     19 C13         8.3221   -7.8322   -5.7328 C.2       1 <0>        -0.2190
     20 C14         8.2114   -7.8387   -4.3898 C.2       1 <0>        -0.0052
     21 O1          7.1922   -7.0382   -4.0386 O.3       1 <0>        -0.1534
     22 N7          3.0561   -3.4578   -7.9217 N.am      1 <0>        -0.6463
     23 C15         2.1860   -2.7112   -8.6302 C.2       1 <0>         0.5064
     24 O2          1.3356   -2.0640   -8.0571 O.2       1 <0>        -0.4315
     25 C16         2.2699   -2.6807  -10.1345 C.3       1 <0>        -0.0941
     26 C17         1.1930   -1.7783  -10.6795 C.ar      1 <0>        -0.0717
     27 C18        -0.0589   -2.3099  -10.9840 C.ar      1 <0>        -0.0993
     28 C19        -1.0531   -1.5227  -11.4780 C.ar      1 <0>        -0.1032
     29 C20        -0.8174   -0.1528  -11.6851 C.ar      1 <0>        -0.0478
     30 C21        -1.8194    0.6917  -12.1931 C.ar      1 <0>        -0.1073
     31 C22        -1.5549    2.0135  -12.3802 C.ar      1 <0>        -0.1150
     32 C23        -0.3031    2.5451  -12.0755 C.ar      1 <0>        -0.1172
     33 C24         0.6912    1.7577  -11.5819 C.ar      1 <0>        -0.1046
     34 C25         0.4555    0.3878  -11.3752 C.ar      1 <0>        -0.0503
     35 C26         1.4558   -0.4555  -10.8619 C.ar      1 <0>        -0.0850
     36 H1          1.0039    1.9031    0.0027 H         1 <0>         0.0550
     37 H2         -0.5459    1.8868   -0.8726 H         1 <0>         0.0568
     38 H3         -0.5289    1.8773    0.9072 H         1 <0>         0.0582
     39 H4          0.5293   -0.3651    0.8851 H         1 <0>         0.0660
     40 H5         -1.0205   -0.3814    0.0098 H         1 <0>         0.0677
     41 H6          0.1910   -0.1364   -2.1398 H         1 <0>         0.0833
     42 H7          1.7408   -0.1202   -1.2645 H         1 <0>         0.0712
     43 H8          1.2661   -2.3884   -0.3821 H         1 <0>         0.1084
     44 H9         -0.2836   -2.4046   -1.2575 H         1 <0>         0.0985
     45 H10         2.9480   -3.7807   -1.6198 H         1 <0>         0.2003
     46 H11         7.1130   -6.7523   -7.2623 H         1 <0>         0.1607
     47 H12         9.0487   -8.3743   -6.3198 H         1 <0>         0.1595
     48 H13         8.8403   -8.3928   -3.7088 H         1 <0>         0.2138
     49 H14         3.7364   -3.9755   -8.3801 H         1 <0>         0.4304
     50 H15         3.2471   -2.3037  -10.4363 H         1 <0>         0.1130
     51 H16         2.1324   -3.6884  -10.5266 H         1 <0>         0.1137
     52 H17        -0.2427   -3.3623  -10.8258 H         1 <0>         0.1225
     53 H18        -2.0181   -1.9486  -11.7101 H         1 <0>         0.1285
     54 H19        -2.7940    0.2937  -12.4340 H         1 <0>         0.1271
     55 H20        -2.3266    2.6602  -12.7710 H         1 <0>         0.1233
     56 H21        -0.1192    3.5975  -12.2337 H         1 <0>         0.1233
     57 H22         1.6564    2.1834  -11.3506 H         1 <0>         0.1265
     58 H23         2.4291   -0.0567  -10.6171 H         1 <0>         0.1261
@<TRIPOS>BOND
     1    1    2 1
     2    1   36 1
     3    1   37 1
     4    1   38 1
     5    2    3 1
     6    2   39 1
     7    2   40 1
     8    3    4 1
     9    3   41 1
    10    3   42 1
    11    4    5 1
    12    4   43 1
    13    4   44 1
    14    5    9 1
    15    5    6 1
    16    6    7 2
    17    6   45 1
    18    7   13 1
    19    7    8 1
    20    8    9 2
    21    8   10 1
    22   10   11 2
    23   11   12 1
    24   11   22 1
    25   12   16 1
    26   12   13 1
    27   13   14 2
    28   14   15 1
    29   15   16 2
    30   15   17 1
    31   17   21 1
    32   17   18 2
    33   18   19 1
    34   18   46 1
    35   19   20 2
    36   19   47 1
    37   20   21 1
    38   20   48 1
    39   22   23 am
    40   22   49 1
    41   23   24 2
    42   23   25 1
    43   25   26 1
    44   25   50 1
    45   25   51 1
    46   26   35 ar
    47   26   27 ar
    48   27   28 ar
    49   27   52 1
    50   28   29 ar
    51   28   53 1
    52   29   34 ar
    53   29   30 ar
    54   30   31 ar
    55   30   54 1
    56   31   32 ar
    57   31   55 1
    58   32   33 ar
    59   32   56 1
    60   33   34 ar
    61   33   57 1
    62   34   35 ar
    63   35   58 1
