@<TRIPOS>MOLECULE
CHEMBL275605
   64    67     0     0     0
SMALL
USER_CHARGES

@<TRIPOS>ATOM
      1 C1         -0.0187    1.5258    0.0104 C.3       1 <0>        -0.1471
      2 C2          0.0021   -0.0041    0.0020 C.3       1 <0>        -0.1385
      3 C3         -1.4333   -0.5336    0.0129 C.3       1 <0>         0.1190
      4 N1         -1.4134   -1.9985    0.0048 N.am      1 <0>        -0.5083
      5 C4         -1.3926   -2.6971    1.2022 C.2       1 <0>         0.3301
      6 C5         -1.3740   -4.0878    1.1662 C.2       1 <0>        -0.1473
      7 C6         -1.3769   -4.7431   -0.0825 C.2       1 <0>         0.5933
      8 O1         -1.3613   -5.9599   -0.1397 O.2       1 <0>        -0.5108
      9 N2         -1.3976   -4.0074   -1.2132 N.am      1 <0>        -0.5485
     10 C7         -1.4210   -2.6643   -1.1652 C.2       1 <0>         0.7077
     11 O2         -1.4448   -2.0346   -2.2051 O.2       1 <0>        -0.5285
     12 C8         -1.4003   -4.6827   -2.5132 C.3       1 <0>         0.1138
     13 C9         -2.8435   -4.9380   -2.9524 C.3       1 <0>        -0.1379
     14 C10        -2.8462   -5.6433   -4.3101 C.3       1 <0>        -0.1473
     15 N3         -1.3557   -4.5135    2.4813 N.pl3     1 <0>        -0.5165
     16 C11        -1.3636   -3.3941    3.2571 C.2       1 <0>         0.3501
     17 N4         -1.3855   -2.3271    2.4822 N.2       1 <0>        -0.4857
     18 H1         -1.3406   -5.4324    2.7917 H         1 <0>         0.4364
     19 C12        -1.3506   -3.3777    4.7338 C.ar      1 <0>        -0.0780
     20 C13        -1.3225   -4.5782    5.4473 C.ar      1 <0>        -0.0538
     21 C14        -1.3105   -4.5586    6.8248 C.ar      1 <0>        -0.1433
     22 C15        -1.3267   -3.3469    7.5043 C.ar      1 <0>         0.1550
     23 C16        -1.3551   -2.1506    6.7984 C.ar      1 <0>        -0.2121
     24 C17        -1.3606   -2.1615    5.4207 C.ar      1 <0>        -0.0183
     25 O3         -1.3153   -3.3318    8.8621 O.3       1 <0>        -0.2838
     26 C18        -1.3331   -2.0517    9.4968 C.3       1 <0>         0.0386
     27 C19        -1.3169   -2.2325   10.9929 C.2       1 <0>         0.5153
     28 O4         -1.2924   -3.3478   11.4687 O.2       1 <0>        -0.5114
     29 N5         -1.3296   -1.1548   11.8021 N.am      1 <0>        -0.7229
     30 C20        -1.3138   -1.3305   13.2564 C.3       1 <0>         0.1636
     31 C21        -1.3326    0.0195   13.9258 C.ar      1 <0>        -0.1143
     32 C22        -0.1444    0.6631   14.2174 C.ar      1 <0>        -0.0999
     33 C23        -0.1617    1.9014   14.8314 C.ar      1 <0>        -0.1212
     34 C24        -1.3672    2.4965   15.1534 C.ar      1 <0>        -0.1092
     35 C25        -2.5554    1.8533   14.8611 C.ar      1 <0>        -0.1212
     36 C26        -2.5382    0.6169   14.2432 C.ar      1 <0>        -0.0999
     37 H2          1.0039    1.9031    0.0027 H         1 <0>         0.0607
     38 H3         -0.5459    1.8868   -0.8726 H         1 <0>         0.0589
     39 H4         -0.5289    1.8773    0.9072 H         1 <0>         0.0586
     40 H5          0.5123   -0.3556   -0.8948 H         1 <0>         0.0681
     41 H6          0.5293   -0.3651    0.8851 H         1 <0>         0.0681
     42 H7         -1.9435   -0.1821    0.9097 H         1 <0>         0.0986
     43 H8         -1.9605   -0.1726   -0.8702 H         1 <0>         0.1006
     44 H9         -0.9020   -4.0534   -3.2506 H         1 <0>         0.1034
     45 H10        -0.8724   -5.6328   -2.4302 H         1 <0>         0.1017
     46 H11        -3.3418   -5.5673   -2.2150 H         1 <0>         0.0673
     47 H12        -3.3714   -3.9880   -3.0355 H         1 <0>         0.0693
     48 H13        -2.3479   -5.0140   -5.0475 H         1 <0>         0.0598
     49 H14        -2.3183   -6.5933   -4.2271 H         1 <0>         0.0589
     50 H15        -3.8744   -5.8251   -4.6230 H         1 <0>         0.0615
     51 H16        -1.3106   -5.5206    4.9198 H         1 <0>         0.1318
     52 H17        -1.2888   -5.4864    7.3772 H         1 <0>         0.1440
     53 H18        -1.3684   -1.2108    7.3303 H         1 <0>         0.1388
     54 H19        -1.3774   -1.2310    4.8727 H         1 <0>         0.1460
     55 H20        -0.4560   -1.4818    9.1902 H         1 <0>         0.0987
     56 H21        -2.2356   -1.5143    9.2056 H         1 <0>         0.0986
     57 H22        -1.3491   -0.2627   11.4216 H         1 <0>         0.4040
     58 H23        -2.1909   -1.9004   13.5631 H         1 <0>         0.0802
     59 H24        -0.4113   -1.8679   13.5477 H         1 <0>         0.0802
     60 H25         0.7973    0.1982   13.9657 H         1 <0>         0.1247
     61 H26         0.7666    2.4039   15.0598 H         1 <0>         0.1256
     62 H27        -1.3807    3.4637   15.6338 H         1 <0>         0.1247
     63 H28        -3.4972    2.3180   15.1130 H         1 <0>         0.1256
     64 H29        -3.4665    0.1160   14.0114 H         1 <0>         0.1247
@<TRIPOS>BOND
     1    1    2 1
     2    1   37 1
     3    1   38 1
     4    1   39 1
     5    2    3 1
     6    2   40 1
     7    2   41 1
     8    3   42 1
     9    3   43 1
    10    3    4 1
    11    4    5 1
    12    4   10 am
    13    5   17 1
    14    5    6 2
    15    6    7 1
    16    6   15 1
    17    7    9 am
    18    7    8 2
    19    9   10 am
    20    9   12 1
    21   10   11 2
    22   12   13 1
    23   12   44 1
    24   12   45 1
    25   13   14 1
    26   13   46 1
    27   13   47 1
    28   14   48 1
    29   14   49 1
    30   14   50 1
    31   15   18 1
    32   15   16 1
    33   16   19 1
    34   16   17 2
    35   19   24 ar
    36   19   20 ar
    37   20   21 ar
    38   20   51 1
    39   21   22 ar
    40   21   52 1
    41   22   23 ar
    42   22   25 1
    43   23   24 ar
    44   23   53 1
    45   24   54 1
    46   25   26 1
    47   26   27 1
    48   26   55 1
    49   26   56 1
    50   27   28 2
    51   27   29 am
    52   29   30 1
    53   29   57 1
    54   30   31 1
    55   30   58 1
    56   30   59 1
    57   31   36 ar
    58   31   32 ar
    59   32   33 ar
    60   32   60 1
    61   33   34 ar
    62   33   61 1
    63   34   35 ar
    64   34   62 1
    65   35   36 ar
    66   35   63 1
    67   36   64 1
