@<TRIPOS>MOLECULE
CHEMBL187326
   52    56     0     0     0
SMALL
USER_CHARGES

@<TRIPOS>ATOM
      1 C1         -0.0167    1.3781    0.0096 C.ar      1 <0>        -0.1082
      2 C2          1.1709    2.0855    0.0021 C.ar      1 <0>        -0.1232
      3 C3          2.3773    1.4107   -0.0130 C.ar      1 <0>        -0.0813
      4 C4          2.3960    0.0285   -0.0201 C.ar      1 <0>        -0.1134
      5 C5          1.2084   -0.6789   -0.0117 C.ar      1 <0>        -0.0992
      6 C6          0.0021   -0.0041    0.0020 C.ar      1 <0>        -0.1245
      7 C7          3.7112   -0.7071   -0.0376 C.3       1 <0>         0.1745
      8 N1          4.1518   -0.9524    1.3379 N.pl3     1 <0>        -0.3639
      9 C8          4.4706   -2.1508    1.8621 C.2       1 <0>         0.1179
     10 C9          4.8288   -1.9498    3.1650 C.2       1 <0>        -0.1941
     11 C10         4.7178   -0.5691    3.4267 C.2       1 <0>         0.1002
     12 N2          4.3195    0.0199    2.3311 N.2       1 <0>        -0.2907
     13 C11         5.2560   -2.9927    4.1273 C.ar      1 <0>         0.4755
     14 N3          5.3139   -4.2568    3.7206 N.ar      1 <0>        -0.5906
     15 C12         5.6910   -5.2259    4.5452 C.ar      1 <0>         0.5164
     16 C13         6.0311   -4.8896    5.8680 C.ar      1 <0>        -0.1212
     17 C14         5.9550   -3.5403    6.2534 C.ar      1 <0>         0.3260
     18 N4          5.5724   -2.6329    5.3623 N.ar      1 <0>        -0.5467
     19 N5          6.3354   -3.5012    7.5714 N.pl3     1 <0>        -0.4723
     20 C15         6.6253   -4.7786    7.9508 C.2       1 <0>         0.2582
     21 N6          6.4462   -5.5911    6.9502 N.2       1 <0>        -0.4580
     22 C16         6.4153   -2.3067    8.4158 C.3       1 <0>         0.3146
     23 C17         5.0538   -2.0348    9.0931 C.3       1 <0>         0.0796
     24 H1          4.4724   -2.9540    9.1643 H         1 <0>         0.0851
     25 C18         5.4307   -1.5223   10.5012 C.3       1 <0>         0.0470
     26 H2          5.0355   -2.1881   11.2684 H         1 <0>         0.0864
     27 C19         6.9753   -1.5451   10.5079 C.3       1 <0>         0.0506
     28 H3          7.3705   -0.5655   10.2388 H         1 <0>         0.0999
     29 O1          7.3343   -2.5240    9.5085 O.3       1 <0>        -0.3471
     30 C20         7.4957   -1.9687   11.8829 C.3       1 <0>         0.0821
     31 O2          8.9213   -1.8714   11.9034 O.3       1 <0>        -0.5633
     32 O3          4.9460   -0.1922   10.6962 O.3       1 <0>        -0.5386
     33 O4          4.3263   -1.0381    8.3726 O.3       1 <0>        -0.5249
     34 N7          5.7479   -6.5394    4.1130 N.pl3     1 <0>        -0.8187
     35 H4         -0.9591    1.9053    0.0259 H         1 <0>         0.1233
     36 H5          1.1563    3.1654    0.0076 H         1 <0>         0.1247
     37 H6          3.3051    1.9634   -0.0196 H         1 <0>         0.1251
     38 H7          1.2231   -1.7588   -0.0176 H         1 <0>         0.1214
     39 H8         -0.9258   -0.5567    0.0082 H         1 <0>         0.1237
     40 H9          3.5884   -1.6586   -0.5549 H         1 <0>         0.1078
     41 H10         4.4573   -0.1052   -0.5563 H         1 <0>         0.0973
     42 H11         4.4473   -3.0993    1.3461 H         1 <0>         0.1858
     43 H12         4.9298   -0.0827    4.3674 H         1 <0>         0.1923
     44 H13         6.9555   -5.0725    8.9362 H         1 <0>         0.2216
     45 H14         6.7257   -1.4451    7.8246 H         1 <0>         0.1235
     46 H15         7.0759   -1.3151   12.6475 H         1 <0>         0.0666
     47 H16         7.1989   -2.9984   12.0823 H         1 <0>         0.0608
     48 H17         9.3207   -2.1253   12.7466 H         1 <0>         0.3864
     49 H18         5.1548    0.1792   11.5643 H         1 <0>         0.3869
     50 H19         3.4630   -0.8283    8.7545 H         1 <0>         0.3903
     51 H20         5.5108   -6.7598    3.1987 H         1 <0>         0.4095
     52 H21         6.0249   -7.2396    4.7245 H         1 <0>         0.4190
@<TRIPOS>BOND
     1    1    6 ar
     2    1    2 ar
     3    1   35 1
     4    2    3 ar
     5    2   36 1
     6    3    4 ar
     7    3   37 1
     8    4    5 ar
     9    4    7 1
    10    5    6 ar
    11    5   38 1
    12    6   39 1
    13    7    8 1
    14    7   40 1
    15    7   41 1
    16    8   12 1
    17    8    9 1
    18    9   10 2
    19    9   42 1
    20   10   11 1
    21   10   13 1
    22   11   12 2
    23   11   43 1
    24   13   18 ar
    25   13   14 ar
    26   14   15 ar
    27   15   16 ar
    28   15   34 1
    29   16   21 1
    30   16   17 ar
    31   17   18 ar
    32   17   19 1
    33   19   20 1
    34   19   22 1
    35   20   21 2
    36   20   44 1
    37   22   29 1
    38   22   23 1
    39   22   45 1
    40   23   24 1
    41   23   25 1
    42   23   33 1
    43   25   26 1
    44   25   27 1
    45   25   32 1
    46   27   28 1
    47   27   29 1
    48   27   30 1
    49   30   31 1
    50   30   46 1
    51   30   47 1
    52   31   48 1
    53   32   49 1
    54   33   50 1
    55   34   51 1
    56   34   52 1
