@<TRIPOS>MOLECULE
CHEMBL259319
   51    55     0     0     0
SMALL
USER_CHARGES

@<TRIPOS>ATOM
      1 C1         -0.0167    1.3792    0.0096 C.ar      1 <0>        -0.0915
      2 C2          1.1685    2.0928    0.0021 C.ar      1 <0>        -0.1260
      3 C3          2.3774    1.4278   -0.0129 C.ar      1 <0>        -0.0550
      4 C4          2.4029    0.0333   -0.0206 C.ar      1 <0>        -0.0753
      5 C5          1.2046   -0.6805   -0.0130 C.ar      1 <0>        -0.0873
      6 C6          0.0021   -0.0041    0.0020 C.ar      1 <0>        -0.1216
      7 C7          3.6971   -0.6866   -0.0373 C.ar      1 <0>         0.3105
      8 C8          3.8457   -1.9114    0.6465 C.ar      1 <0>        -0.1610
      9 C9          5.1026   -2.5509    0.5946 C.ar      1 <0>         0.3155
     10 N1          6.0868   -1.9765   -0.0916 N.ar      1 <0>        -0.5431
     11 C10         5.9003   -0.8255   -0.7180 C.ar      1 <0>         0.5748
     12 N2          4.7374   -0.1924   -0.7016 N.ar      1 <0>        -0.4967
     13 N3          6.9575   -0.2660   -1.4200 N.am      1 <0>        -0.6363
     14 C11         6.7927    0.9053   -2.0661 C.2       1 <0>         0.5154
     15 O1          5.7201    1.4699   -2.0336 O.2       1 <0>        -0.4530
     16 C12         7.9415    1.5132   -2.8289 C.3       1 <0>        -0.1094
     17 C13         8.3332    0.6133   -4.0272 C.3       1 <0>        -0.1174
     18 C14         9.0291    1.6083   -4.9888 C.3       1 <0>        -0.1234
     19 C15         8.2045    2.9051   -4.8531 C.3       1 <0>        -0.1261
     20 C16         7.5130    2.8446   -3.4798 C.3       1 <0>        -0.1128
     21 C17         5.3220   -3.8376    1.2917 C.ar      1 <0>        -0.0641
     22 C18         4.6819   -4.0936    2.5051 C.ar      1 <0>        -0.0730
     23 C19         4.8875   -5.2926    3.1536 C.ar      1 <0>        -0.0992
     24 C20         5.7303   -6.2483    2.6038 C.ar      1 <0>         0.0619
     25 C21         6.3725   -5.9983    1.3912 C.ar      1 <0>         0.0278
     26 C22         6.1650   -4.8000    0.7342 C.ar      1 <0>        -0.0452
     27 O2          7.1362   -7.0837    1.0707 O.3       1 <0>        -0.3034
     28 C23         7.2761   -7.8294    2.2944 C.3       1 <0>         0.2120
     29 O3          6.0925   -7.4893    3.0401 O.3       1 <0>        -0.3032
     30 C24         2.7541   -2.4882    1.3720 C.1       1 <0>         0.2643
     31 N4          1.8881   -2.9457    1.9476 N.1       1 <0>        -0.3920
     32 H1         -0.9604    1.9042    0.0260 H         1 <0>         0.1291
     33 H2          1.1475    3.1726    0.0077 H         1 <0>         0.1315
     34 H3          3.3020    1.9860   -0.0191 H         1 <0>         0.1369
     35 H4          1.2180   -1.7604   -0.0193 H         1 <0>         0.1237
     36 H5         -0.9264   -0.5556    0.0079 H         1 <0>         0.1303
     37 H6          7.8155   -0.7177   -1.4460 H         1 <0>         0.4278
     38 H7          8.7960    1.6682   -2.1703 H         1 <0>         0.1086
     39 H8          9.0249   -0.1685   -3.7133 H         1 <0>         0.0766
     40 H9          7.4467    0.1822   -4.4925 H         1 <0>         0.0742
     41 H10        10.0607    1.7783   -4.6808 H         1 <0>         0.0707
     42 H11         8.9919    1.2381   -6.0133 H         1 <0>         0.0710
     43 H12         8.8624    3.7727   -4.9019 H         1 <0>         0.0676
     44 H13         7.4576    2.9572   -5.6452 H         1 <0>         0.0671
     45 H14         6.4305    2.8674   -3.6055 H         1 <0>         0.0858
     46 H15         7.8353    3.6829   -2.8622 H         1 <0>         0.0710
     47 H16         4.0257   -3.3521    2.9363 H         1 <0>         0.1408
     48 H17         4.3915   -5.4887    4.0927 H         1 <0>         0.1462
     49 H18         6.6581   -4.6070   -0.2070 H         1 <0>         0.1486
     50 H19         7.3052   -8.8996    2.0895 H         1 <0>         0.1366
     51 H20         8.1709   -7.5172    2.8330 H         1 <0>         0.0899
@<TRIPOS>BOND
     1    1    6 ar
     2    1    2 ar
     3    1   32 1
     4    2    3 ar
     5    2   33 1
     6    3    4 ar
     7    3   34 1
     8    4    5 ar
     9    4    7 1
    10    5    6 ar
    11    5   35 1
    12    6   36 1
    13    7   12 ar
    14    7    8 ar
    15    8    9 ar
    16    8   30 1
    17    9   10 ar
    18    9   21 1
    19   10   11 ar
    20   11   12 ar
    21   11   13 1
    22   13   14 am
    23   13   37 1
    24   14   15 2
    25   14   16 1
    26   16   20 1
    27   16   17 1
    28   16   38 1
    29   17   18 1
    30   17   39 1
    31   17   40 1
    32   18   19 1
    33   18   41 1
    34   18   42 1
    35   19   20 1
    36   19   43 1
    37   19   44 1
    38   20   45 1
    39   20   46 1
    40   21   26 ar
    41   21   22 ar
    42   22   23 ar
    43   22   47 1
    44   23   24 ar
    45   23   48 1
    46   24   29 1
    47   24   25 ar
    48   25   26 ar
    49   25   27 1
    50   26   49 1
    51   27   28 1
    52   28   29 1
    53   28   50 1
    54   28   51 1
    55   30   31 3
