@<TRIPOS>MOLECULE
CHEMBL479784
   59    65     0     0     0
SMALL
USER_CHARGES

@<TRIPOS>ATOM
      1 C1          0.0811    0.9694    1.0834 C.2       1 <0>        -0.2199
      2 C2          1.4229    1.3993    1.0917 C.2       1 <0>        -0.1373
      3 C3          2.1869    0.3027    0.8428 C.2       1 <0>         0.0424
      4 O1          1.3660   -0.7538    0.6876 O.3       1 <0>        -0.1521
      5 C4          0.0923   -0.3545    0.8324 C.2       1 <0>        -0.0043
      6 C5          3.6621    0.2747    0.7573 C.2       1 <0>         0.3505
      7 N1          4.4037   -0.8116    0.5060 N.2       1 <0>        -0.5163
      8 C6          5.6793   -0.4847    0.5003 C.2       1 <0>         0.4065
      9 C7          6.9249   -1.2231    0.2897 C.2       1 <0>        -0.2674
     10 C8          7.2446   -2.5641    0.0115 C.2       1 <0>         0.1309
     11 N2          8.5420   -2.6690   -0.0791 N.2       1 <0>        -0.2633
     12 N3          9.1277   -1.4147    0.1333 N.pl3     1 <0>        -0.3545
     13 C9          8.1326   -0.5125    0.3626 C.2       1 <0>         0.3706
     14 N4          8.1115    0.8027    0.6200 N.2       1 <0>        -0.5609
     15 C10         6.9942    1.4610    0.8088 C.2       1 <0>         0.6919
     16 N5          5.7708    0.8588    0.7563 N.pl3     1 <0>        -0.3763
     17 N6          4.4564    1.3175    0.9109 N.2       1 <0>        -0.2997
     18 N7          7.0570    2.8102    1.0683 N.pl3     1 <0>        -0.8022
     19 C11        10.5633   -1.1231    0.1133 C.3       1 <0>         0.1430
     20 C12        10.9875   -0.7464   -1.3076 C.3       1 <0>        -0.0919
     21 C13        12.4642   -0.4464   -1.3281 C.ar      1 <0>        -0.1074
     22 C14        12.9048    0.8539   -1.0927 C.ar      1 <0>        -0.0773
     23 C15        14.2317    1.1581   -1.1042 C.ar      1 <0>        -0.1114
     24 C16        15.1766    0.1488   -1.3565 C.ar      1 <0>         0.1859
     25 C17        14.7263   -1.1726   -1.5951 C.ar      1 <0>        -0.1491
     26 C18        13.3509   -1.4512   -1.5710 C.ar      1 <0>        -0.0655
     27 C19        15.6737   -2.1853   -1.8482 C.ar      1 <0>        -0.0179
     28 C20        16.9938   -1.8481   -1.8527 C.ar      1 <0>        -0.2184
     29 C21        17.3766   -0.5213   -1.6093 C.ar      1 <0>         0.4323
     30 N8         16.4864    0.4205   -1.3731 N.ar      1 <0>        -0.5499
     31 N9         18.7240   -0.1930   -1.6171 N.pl3     1 <0>        -0.6083
     32 C22        19.1615    1.2117   -1.5941 C.3       1 <0>         0.0889
     33 C23        20.1995    1.3766   -0.4781 C.3       1 <0>         0.0461
     34 O2         21.2257    0.3946   -0.6409 O.3       1 <0>        -0.3790
     35 C24        20.7673   -0.9549   -0.5296 C.3       1 <0>         0.0466
     36 C25        19.7585   -1.2393   -1.6425 C.3       1 <0>         0.0861
     37 H1         -0.7911    1.5839    1.2511 H         1 <0>         0.1594
     38 H2          1.7762    2.4055    1.2623 H         1 <0>         0.1599
     39 H3         -0.7787   -0.9891    0.7604 H         1 <0>         0.2142
     40 H4          6.5361   -3.3706   -0.1071 H         1 <0>         0.2022
     41 H5          7.9171    3.2569    1.1086 H         1 <0>         0.4305
     42 H6          6.2412    3.3151    1.2109 H         1 <0>         0.4263
     43 H7         10.7748   -0.2933    0.7877 H         1 <0>         0.1017
     44 H8         11.1176   -2.0043    0.4364 H         1 <0>         0.1030
     45 H9         10.7759   -1.5762   -1.9820 H         1 <0>         0.0835
     46 H10        10.4332    0.1348   -1.6307 H         1 <0>         0.0804
     47 H11        12.1825    1.6329   -0.8983 H         1 <0>         0.1287
     48 H12        14.5570    2.1714   -0.9205 H         1 <0>         0.1332
     49 H13        12.9974   -2.4563   -1.7481 H         1 <0>         0.1290
     50 H14        15.3612   -3.2024   -2.0333 H         1 <0>         0.1412
     51 H15        17.7439   -2.6014   -2.0430 H         1 <0>         0.1367
     52 H16        19.6090    1.4726   -2.5531 H         1 <0>         0.0710
     53 H17        18.3067    1.8593   -1.3990 H         1 <0>         0.1073
     54 H18        20.6374    2.3733   -0.5326 H         1 <0>         0.1068
     55 H19        19.7174    1.2423    0.4902 H         1 <0>         0.0561
     56 H20        21.6137   -1.6356   -0.6211 H         1 <0>         0.1089
     57 H21        20.2873   -1.0977    0.4386 H         1 <0>         0.0559
     58 H22        19.2988   -2.2141   -1.4794 H         1 <0>         0.0944
     59 H23        20.2671   -1.2294   -2.6065 H         1 <0>         0.0783
@<TRIPOS>BOND
     1    1    5 2
     2    1    2 1
     3    1   37 1
     4    2    3 2
     5    2   38 1
     6    3    4 1
     7    3    6 1
     8    4    5 1
     9    5   39 1
    10    6   17 2
    11    6    7 1
    12    7    8 2
    13    8   16 1
    14    8    9 1
    15    9   13 2
    16    9   10 1
    17   10   11 2
    18   10   40 1
    19   11   12 1
    20   12   13 1
    21   12   19 1
    22   13   14 1
    23   14   15 2
    24   15   16 1
    25   15   18 1
    26   16   17 1
    27   18   41 1
    28   18   42 1
    29   19   20 1
    30   19   43 1
    31   19   44 1
    32   20   21 1
    33   20   45 1
    34   20   46 1
    35   21   26 ar
    36   21   22 ar
    37   22   23 ar
    38   22   47 1
    39   23   24 ar
    40   23   48 1
    41   24   30 ar
    42   24   25 ar
    43   25   26 ar
    44   25   27 ar
    45   26   49 1
    46   27   28 ar
    47   27   50 1
    48   28   29 ar
    49   28   51 1
    50   29   30 ar
    51   29   31 1
    52   31   36 1
    53   31   32 1
    54   32   33 1
    55   32   52 1
    56   32   53 1
    57   33   34 1
    58   33   54 1
    59   33   55 1
    60   34   35 1
    61   35   36 1
    62   35   56 1
    63   35   57 1
    64   36   58 1
    65   36   59 1
