@<TRIPOS>MOLECULE
CHEMBL517886
   36    39     0     0     0
SMALL
USER_CHARGES

@<TRIPOS>ATOM
      1 C1         -0.0162    1.3451    0.0094 C.2       1 <0>        -0.2250
      2 C2          1.3225    1.7763   -0.0010 C.2       1 <0>        -0.1236
      3 C3          2.0959    0.6543   -0.0144 C.2       1 <0>        -0.0072
      4 O1          1.2782   -0.4173   -0.0124 O.3       1 <0>        -0.1488
      5 C4          0.0021   -0.0041    0.0020 C.2       1 <0>         0.0008
      6 C5          3.5677    0.6188   -0.0291 C.ar      1 <0>         0.4083
      7 C6          4.2734   -0.4010    0.6510 C.ar      1 <0>        -0.1550
      8 C7          5.6790   -0.3802    0.5989 C.ar      1 <0>         0.3615
      9 N1          6.2899    0.5856   -0.0804 N.ar      1 <0>        -0.5798
     10 C8          5.5905    1.5202   -0.7032 C.ar      1 <0>         0.6207
     11 N2          4.2647    1.5429   -0.6876 N.ar      1 <0>        -0.5509
     12 N3          6.2669    2.5076   -1.3991 N.pl3     1 <0>        -0.8039
     13 N4          6.0998   -1.4584    1.3276 N.pl3     1 <0>        -0.3796
     14 N5          4.9441   -2.0995    1.7988 N.2       1 <0>         0.0019
     15 N6          3.9043   -1.4608    1.3883 N.2       1 <0>        -0.1696
     16 C9          7.4865   -1.8648    1.5687 C.3       1 <0>         0.1841
     17 C10         7.9940   -1.2001    2.8224 C.ar      1 <0>        -0.1601
     18 C11         8.6069    0.0371    2.7474 C.ar      1 <0>        -0.0470
     19 C12         9.0740    0.6498    3.8942 C.ar      1 <0>        -0.1799
     20 C13         8.9275    0.0225    5.1240 C.ar      1 <0>         0.2053
     21 C14         8.3104   -1.2217    5.1971 C.ar      1 <0>         0.0126
     22 C15         7.8407   -1.8266    4.0457 C.ar      1 <0>        -0.0727
     23 F1          8.1660   -1.8363    6.3915 F         1 <0>        -0.1405
     24 N7          9.3998    0.6400    6.2864 N.pl3     1 <0>        -0.8687
     25 H1         -0.8933    1.9750    0.0252 H         1 <0>         0.1582
     26 H2          1.6703    2.7988    0.0008 H         1 <0>         0.1591
     27 H3         -0.8670   -0.6452    0.0072 H         1 <0>         0.2131
     28 H4          7.2366    2.5058   -1.4240 H         1 <0>         0.4203
     29 H5          5.7711    3.2012   -1.8618 H         1 <0>         0.4217
     30 H6          7.5325   -2.9473    1.6872 H         1 <0>         0.1140
     31 H7          8.1052   -1.5653    0.7227 H         1 <0>         0.1130
     32 H8          8.7209    0.5251    1.7908 H         1 <0>         0.1343
     33 H9          9.5531    1.6158    3.8339 H         1 <0>         0.1337
     34 H10         7.3576   -2.7909    4.1013 H         1 <0>         0.1402
     35 H11         9.8303    1.5077    6.2341 H         1 <0>         0.4048
     36 H12         9.2968    0.2007    7.1451 H         1 <0>         0.4045
@<TRIPOS>BOND
     1    1    5 2
     2    1    2 1
     3    1   25 1
     4    2    3 2
     5    2   26 1
     6    3    4 1
     7    3    6 1
     8    4    5 1
     9    5   27 1
    10    6   11 ar
    11    6    7 ar
    12    7   15 1
    13    7    8 ar
    14    8    9 ar
    15    8   13 1
    16    9   10 ar
    17   10   11 ar
    18   10   12 1
    19   12   28 1
    20   12   29 1
    21   13   14 1
    22   13   16 1
    23   14   15 2
    24   16   17 1
    25   16   30 1
    26   16   31 1
    27   17   22 ar
    28   17   18 ar
    29   18   19 ar
    30   18   32 1
    31   19   20 ar
    32   19   33 1
    33   20   21 ar
    34   20   24 1
    35   21   22 ar
    36   21   23 1
    37   22   34 1
    38   24   35 1
    39   24   36 1
