@<TRIPOS>MOLECULE
CHEMBL519282
   50    55     0     0     0
SMALL
USER_CHARGES

@<TRIPOS>ATOM
      1 C1         -0.0166    1.3757    0.0096 C.ar      1 <0>        -0.1119
      2 C2          1.1704    2.0862    0.0021 C.ar      1 <0>        -0.1064
      3 C3          2.3816    1.4188   -0.0135 C.ar      1 <0>        -0.0797
      4 C4          2.4120    0.0387   -0.0213 C.ar      1 <0>        -0.1005
      5 C5          1.2197   -0.6817   -0.0133 C.ar      1 <0>        -0.0418
      6 C6          0.0021   -0.0041    0.0020 C.ar      1 <0>        -0.1078
      7 C7          1.2461   -2.1654   -0.0215 C.ar      1 <0>        -0.0963
      8 C8          0.0552   -2.8969   -0.0194 C.ar      1 <0>        -0.0685
      9 C9          0.1335   -4.2788   -0.0273 C.ar      1 <0>        -0.1674
     10 C10         1.3762   -4.8859   -0.0370 C.ar      1 <0>         0.0976
     11 N1          2.4831   -4.1689   -0.0383 N.ar      1 <0>        -0.4806
     12 C11         2.4582   -2.8517   -0.0373 C.ar      1 <0>         0.1085
     13 C12         3.6705    2.1996   -0.0227 C.3       1 <0>        -0.0958
     14 C13         4.1213    2.4565    1.4167 C.3       1 <0>         0.1440
     15 N2          5.3743    3.2156    1.4078 N.pl3     1 <0>        -0.3553
     16 C14         6.6294    2.6850    1.3869 C.2       1 <0>         0.3707
     17 C15         7.5209    3.7685    1.3852 C.2       1 <0>        -0.2671
     18 C16         6.7500    4.9446    1.4056 C.2       1 <0>         0.1316
     19 N3          5.4885    4.6113    1.4132 N.2       1 <0>        -0.2633
     20 C17         8.9550    3.4782    1.3646 C.2       1 <0>         0.4064
     21 N4         10.0451    4.2169    1.3573 N.2       1 <0>        -0.5161
     22 C18        11.1249    3.4251    1.3368 C.2       1 <0>         0.3506
     23 N5         10.7388    2.1632    1.3306 N.2       1 <0>        -0.2993
     24 N6          9.3382    2.1622    1.3482 N.pl3     1 <0>        -0.3764
     25 C19         8.3940    1.1770    1.3511 C.2       1 <0>         0.6924
     26 N7          7.1091    1.4336    1.3696 N.2       1 <0>        -0.5616
     27 N8          8.8065   -0.1349    1.3345 N.pl3     1 <0>        -0.8017
     28 C20        12.5274    3.8910    1.3232 C.2       1 <0>         0.0422
     29 C21        13.6312    3.0979    1.2969 C.2       1 <0>        -0.1370
     30 C22        14.7481    3.9568    1.2917 C.2       1 <0>        -0.2199
     31 C23        14.2758    5.2187    1.3149 C.2       1 <0>        -0.0041
     32 O1         12.9339    5.1752    1.3288 O.3       1 <0>        -0.1521
     33 H1         -0.9596    1.9019    0.0260 H         1 <0>         0.1282
     34 H2          1.1512    3.1660    0.0081 H         1 <0>         0.1272
     35 H3          3.3584   -0.4815   -0.0338 H         1 <0>         0.1277
     36 H4         -0.9252   -0.5577    0.0083 H         1 <0>         0.1256
     37 H5         -0.9019   -2.3965   -0.0115 H         1 <0>         0.1374
     38 H6         -0.7661   -4.8765   -0.0256 H         1 <0>         0.1389
     39 H7          1.4411   -5.9640   -0.0432 H         1 <0>         0.1581
     40 H8          3.3860   -2.2989   -0.0436 H         1 <0>         0.1571
     41 H9          4.4371    1.6292   -0.5472 H         1 <0>         0.0813
     42 H10         3.5150    3.1516   -0.5301 H         1 <0>         0.0862
     43 H11         3.3547    3.0269    1.9412 H         1 <0>         0.1041
     44 H12         4.2768    1.5045    1.9242 H         1 <0>         0.1016
     45 H13         7.1367    5.9530    1.4099 H         1 <0>         0.2025
     46 H14         9.7533   -0.3455    1.3210 H         1 <0>         0.4265
     47 H15         8.1507   -0.8496    1.3362 H         1 <0>         0.4307
     48 H16        13.6486    2.0181    1.2830 H         1 <0>         0.1600
     49 H17        15.7864    3.6600    1.2731 H         1 <0>         0.1594
     50 H18        14.8768    6.1160    1.3178 H         1 <0>         0.2142
@<TRIPOS>BOND
     1    1    6 ar
     2    1    2 ar
     3    1   33 1
     4    2    3 ar
     5    2   34 1
     6    3    4 ar
     7    3   13 1
     8    4    5 ar
     9    4   35 1
    10    5    6 ar
    11    5    7 1
    12    6   36 1
    13    7   12 ar
    14    7    8 ar
    15    8    9 ar
    16    8   37 1
    17    9   10 ar
    18    9   38 1
    19   10   11 ar
    20   10   39 1
    21   11   12 ar
    22   12   40 1
    23   13   14 1
    24   13   41 1
    25   13   42 1
    26   14   15 1
    27   14   43 1
    28   14   44 1
    29   15   19 1
    30   15   16 1
    31   16   26 1
    32   16   17 2
    33   17   18 1
    34   17   20 1
    35   18   19 2
    36   18   45 1
    37   20   24 1
    38   20   21 2
    39   21   22 1
    40   22   23 2
    41   22   28 1
    42   23   24 1
    43   24   25 1
    44   25   26 2
    45   25   27 1
    46   27   46 1
    47   27   47 1
    48   28   32 1
    49   28   29 2
    50   29   30 1
    51   29   48 1
    52   30   31 2
    53   30   49 1
    54   31   32 1
    55   31   50 1
