@<TRIPOS>MOLECULE
CHEMBL360029
   42    46     0     0     0
SMALL
USER_CHARGES

@<TRIPOS>ATOM
      1 C1         -0.0168    1.3855    0.0097 C.ar      1 <0>        -0.1672
      2 C2          1.1709    2.0933    0.0021 C.ar      1 <0>        -0.0552
      3 C3          2.3761    1.4238   -0.0129 C.ar      1 <0>        -0.1220
      4 C4          2.4096    0.0303   -0.0207 C.ar      1 <0>        -0.0234
      5 C5          1.2106   -0.6831   -0.0131 C.ar      1 <0>        -0.1402
      6 C6          0.0021   -0.0041    0.0020 C.ar      1 <0>         0.2312
      7 N1         -1.1988   -0.7178    0.0101 N.pl3     1 <0>        -0.6365
      8 C7         -1.3249   -2.1826    0.0099 C.3       1 <0>         0.1114
      9 C8         -2.8324   -2.5127   -0.0059 C.3       1 <0>        -0.1324
     10 C9         -3.4651   -1.2197   -0.5849 C.3       1 <0>        -0.1343
     11 C10        -2.5493   -0.1270    0.0266 C.3       1 <0>         0.1117
     12 C11         3.8188   -0.4286   -0.0365 C.ar      1 <0>         0.2617
     13 C12         4.6648    0.6749   -0.0387 C.ar      1 <0>        -0.2317
     14 C13         6.0442    0.4709   -0.0533 C.ar      1 <0>         0.3067
     15 N2          6.5073   -0.7829   -0.0648 N.ar      1 <0>        -0.5480
     16 C14         5.6726   -1.8099   -0.0622 C.ar      1 <0>         0.5798
     17 N3          4.3583   -1.6493   -0.0474 N.ar      1 <0>        -0.5537
     18 N4          6.1902   -3.0937   -0.0748 N.pl3     1 <0>        -0.8179
     19 C15         6.9739    1.6161   -0.0566 C.2       1 <0>         0.0384
     20 C16         8.1869    1.6622    0.5594 C.2       1 <0>        -0.1412
     21 C17         8.7267    2.9348    0.2972 C.2       1 <0>        -0.1562
     22 C18         7.8265    3.5986   -0.4589 C.2       1 <0>        -0.0155
     23 O1          6.7725    2.7968   -0.6750 O.3       1 <0>        -0.1451
     24 Br1         8.0221    5.3625   -1.1119 Br        1 <0>         0.0628
     25 C19         3.8052    1.9115   -0.0240 C.3       1 <0>        -0.0190
     26 H1         -0.9593    1.9125    0.0260 H         1 <0>         0.1288
     27 H2          1.1544    3.1732    0.0077 H         1 <0>         0.1317
     28 H3          1.2240   -1.7630   -0.0187 H         1 <0>         0.1270
     29 H4         -0.8456   -2.5958   -0.8776 H         1 <0>         0.0622
     30 H5         -0.8647   -2.5944    0.9080 H         1 <0>         0.0620
     31 H6         -3.0338   -3.3647   -0.6551 H         1 <0>         0.0826
     32 H7         -3.1964   -2.7014    1.0040 H         1 <0>         0.0767
     33 H8         -3.4135   -1.2131   -1.6736 H         1 <0>         0.0766
     34 H9         -4.4934   -1.1012   -0.2434 H         1 <0>         0.0843
     35 H10        -2.8529    0.0970    1.0492 H         1 <0>         0.0633
     36 H11        -2.5762    0.7753   -0.5843 H         1 <0>         0.0722
     37 H12         7.1507   -3.2293   -0.0853 H         1 <0>         0.4172
     38 H13         5.5926   -3.8577   -0.0732 H         1 <0>         0.4172
     39 H14         8.6460    0.8742    1.1380 H         1 <0>         0.1659
     40 H15         9.6808    3.3100    0.6370 H         1 <0>         0.1674
     41 H16         3.9913    2.5088   -0.9165 H         1 <0>         0.1014
     42 H17         4.0083    2.4994    0.8712 H         1 <0>         0.0992
@<TRIPOS>BOND
     1    1    6 ar
     2    1    2 ar
     3    1   26 1
     4    2    3 ar
     5    2   27 1
     6    3   25 1
     7    3    4 ar
     8    4    5 ar
     9    4   12 1
    10    5    6 ar
    11    5   28 1
    12    6    7 1
    13    7   11 1
    14    7    8 1
    15    8    9 1
    16    8   29 1
    17    8   30 1
    18    9   10 1
    19    9   31 1
    20    9   32 1
    21   10   11 1
    22   10   33 1
    23   10   34 1
    24   11   35 1
    25   11   36 1
    26   12   17 ar
    27   12   13 ar
    28   13   14 ar
    29   13   25 1
    30   14   15 ar
    31   14   19 1
    32   15   16 ar
    33   16   17 ar
    34   16   18 1
    35   18   37 1
    36   18   38 1
    37   19   23 1
    38   19   20 2
    39   20   21 1
    40   20   39 1
    41   21   22 2
    42   21   40 1
    43   22   23 1
    44   22   24 1
    45   25   41 1
    46   25   42 1
