@<TRIPOS>MOLECULE
CHEMBL594363
   37    39     0     0     0
SMALL
USER_CHARGES

@<TRIPOS>ATOM
      1 C1         -0.0184    1.5028    0.0103 C.3       1 <0>        -0.0835
      2 C2          0.0021   -0.0041    0.0020 C.2       1 <0>         0.0353
      3 C3         -1.0833   -0.8051    0.0027 C.2       1 <0>        -0.2249
      4 C4         -0.6166   -2.1325   -0.0067 C.2       1 <0>        -0.1072
      5 C5          0.7434   -2.0699   -0.0126 C.2       1 <0>        -0.0265
      6 O1          1.1027   -0.7711   -0.0131 O.3       1 <0>        -0.1619
      7 C6          1.6633   -3.2227   -0.0231 C.ar      1 <0>         0.3230
      8 C7          3.0525   -3.0257   -0.0227 C.ar      1 <0>        -0.2089
      9 C8          3.8770   -4.1456   -0.0329 C.ar      1 <0>         0.1694
     10 N1          3.3236   -5.3582   -0.0426 N.ar      1 <0>        -0.5687
     11 C9          2.0090   -5.5063   -0.0428 C.ar      1 <0>         0.5874
     12 N2          1.1880   -4.4674   -0.0277 N.ar      1 <0>        -0.5390
     13 N3          1.4763   -6.7842   -0.0536 N.pl3     1 <0>        -0.8134
     14 C10         5.3533   -3.9925   -0.0333 C.2       1 <0>         0.5937
     15 O2          5.8490   -2.8835   -0.0248 O.2       1 <0>        -0.4878
     16 N4          6.1439   -5.0840   -0.0433 N.am      1 <0>        -0.7292
     17 C11         7.6011   -4.9329   -0.0437 C.3       1 <0>         0.1706
     18 C12         8.2473   -6.2943   -0.0557 C.cat     1 <0>         0.3033
     19 N5          7.6625   -7.4274    0.2983 N.pl3     1 <0>        -0.4853
     20 H1          6.7485   -7.5226    0.6090 H         1 <0>         0.4640
     21 C13         8.5564   -8.4276    0.1527 C.2       1 <0>         0.0241
     22 C14         9.7022   -7.8798   -0.2988 C.2       1 <0>         0.0262
     23 N6          9.4906   -6.5534   -0.4274 N.pl3     1 <0>        -0.4760
     24 H2          1.0042    1.8801    0.0026 H         1 <0>         0.0814
     25 H3         -0.5455    1.8639   -0.8728 H         1 <0>         0.0951
     26 H4         -0.5286    1.8543    0.9071 H         1 <0>         0.0952
     27 H5         -2.1155   -0.4875    0.0092 H         1 <0>         0.1605
     28 H6         -1.2205   -3.0279   -0.0082 H         1 <0>         0.1622
     29 H7          3.4707   -2.0300   -0.0150 H         1 <0>         0.1652
     30 H8          2.0651   -7.5550   -0.0609 H         1 <0>         0.4165
     31 H9          0.5143   -6.9087   -0.0538 H         1 <0>         0.4224
     32 H10         5.7481   -5.9695   -0.0501 H         1 <0>         0.4107
     33 H11         7.9085   -4.3771   -0.9295 H         1 <0>         0.1339
     34 H12         7.9106   -4.3917    0.8504 H         1 <0>         0.1387
     35 H13         8.3856   -9.4736    0.3600 H         1 <0>         0.2317
     36 H14        10.6191   -8.4058   -0.5202 H         1 <0>         0.2326
     37 H15        10.1390   -5.9016   -0.7369 H         1 <0>         0.4693
@<TRIPOS>BOND
     1    1    2 1
     2    1   24 1
     3    1   25 1
     4    1   26 1
     5    2    6 1
     6    2    3 2
     7    3    4 1
     8    3   27 1
     9    4    5 2
    10    4   28 1
    11    5    6 1
    12    5    7 1
    13    7   12 ar
    14    7    8 ar
    15    8    9 ar
    16    8   29 1
    17    9   10 ar
    18    9   14 1
    19   10   11 ar
    20   11   12 ar
    21   11   13 1
    22   13   30 1
    23   13   31 1
    24   14   15 2
    25   14   16 am
    26   16   17 1
    27   16   32 1
    28   17   18 1
    29   17   33 1
    30   17   34 1
    31   18   23 2
    32   18   19 1
    33   19   20 1
    34   19   21 1
    35   21   22 2
    36   21   35 1
    37   22   23 1
    38   22   36 1
    39   23   37 1
