@<TRIPOS>MOLECULE
CHEMBL604212
   58    61     0     0     0
SMALL
USER_CHARGES

@<TRIPOS>ATOM
      1 C1         -0.0167    1.3781    0.0096 C.ar      1 <0>        -0.1259
      2 C2          1.1709    2.0855    0.0021 C.ar      1 <0>        -0.1182
      3 C3          2.3773    1.4107   -0.0130 C.ar      1 <0>        -0.1187
      4 C4          2.3960    0.0285   -0.0201 C.ar      1 <0>        -0.0821
      5 C5          1.2084   -0.6789   -0.0117 C.ar      1 <0>        -0.1187
      6 C6          0.0021   -0.0041    0.0020 C.ar      1 <0>        -0.1182
      7 C7          3.7112   -0.7071   -0.0376 C.3       1 <0>        -0.0820
      8 C8          4.1714   -0.9633    1.3989 C.3       1 <0>        -0.1120
      9 C9          5.5066   -1.7102    1.3812 C.3       1 <0>        -0.1149
     10 C10         5.9667   -1.9663    2.8177 C.3       1 <0>        -0.1209
     11 C11         7.3020   -2.7132    2.8000 C.3       1 <0>         0.0778
     12 O1          7.7318   -2.9524    4.1416 O.3       1 <0>        -0.2861
     13 C12         8.9059   -3.6091    4.3036 C.ar      1 <0>         0.5679
     14 N1          9.5834   -3.9828    3.2273 N.ar      1 <0>        -0.6313
     15 C13        10.7392   -4.6289    3.3332 C.ar      1 <0>         0.5417
     16 C14        11.2355   -4.9118    4.6176 C.ar      1 <0>        -0.1309
     17 C15        10.4826   -4.4962    5.7279 C.ar      1 <0>         0.3414
     18 N2          9.3380   -3.8497    5.5288 N.ar      1 <0>        -0.5686
     19 N3         11.1882   -4.8952    6.8347 N.pl3     1 <0>        -0.4599
     20 C16        12.3166   -5.5236    6.3955 C.2       1 <0>         0.2838
     21 N4         12.3423   -5.5322    5.0948 N.2       1 <0>        -0.4615
     22 C17        10.8014   -4.6845    8.2319 C.3       1 <0>         0.3167
     23 C18         9.9048   -5.8488    8.7232 C.3       1 <0>         0.0749
     24 H1          8.8564   -5.6625    8.4906 H         1 <0>         0.0982
     25 C19        10.1575   -5.7896   10.2544 C.3       1 <0>         0.0486
     26 H2          9.5091   -5.0513   10.7263 H         1 <0>         0.0917
     27 C20        11.6353   -5.3484   10.3258 C.3       1 <0>         0.0600
     28 H3         12.2740   -6.2185   10.4778 H         1 <0>         0.1082
     29 O2         11.9597   -4.7191    9.0806 O.3       1 <0>        -0.3495
     30 C21        11.8261   -4.3574   11.4757 C.3       1 <0>         0.0646
     31 O3         13.2139   -4.0437   11.6088 O.3       1 <0>        -0.5615
     32 O4          9.9773   -7.0761   10.8498 O.3       1 <0>        -0.5428
     33 O5         10.3363   -7.0969    8.1771 O.3       1 <0>        -0.5335
     34 N5         11.4391   -5.0154    2.2040 N.pl3     1 <0>        -0.8126
     35 H4         -0.9591    1.9053    0.0259 H         1 <0>         0.1207
     36 H5          1.1563    3.1654    0.0076 H         1 <0>         0.1213
     37 H6          3.3051    1.9634   -0.0196 H         1 <0>         0.1208
     38 H7          1.2231   -1.7588   -0.0176 H         1 <0>         0.1207
     39 H8         -0.9258   -0.5567    0.0082 H         1 <0>         0.1213
     40 H9          3.5884   -1.6586   -0.5549 H         1 <0>         0.0729
     41 H10         4.4573   -0.1052   -0.5563 H         1 <0>         0.0729
     42 H11         4.2941   -0.0118    1.9163 H         1 <0>         0.0658
     43 H12         3.4252   -1.5652    1.9176 H         1 <0>         0.0657
     44 H13         5.3838   -2.6617    0.8639 H         1 <0>         0.0677
     45 H14         6.2527   -1.1082    0.8625 H         1 <0>         0.0678
     46 H15         6.0895   -1.0148    3.3350 H         1 <0>         0.0748
     47 H16         5.2206   -2.5682    3.3364 H         1 <0>         0.0746
     48 H17         7.1792   -3.6647    2.2826 H         1 <0>         0.0705
     49 H18         8.0481   -2.1113    2.2813 H         1 <0>         0.0708
     50 H19        13.0762   -5.9508    7.0333 H         1 <0>         0.2206
     51 H20        10.2812   -3.7328    8.3403 H         1 <0>         0.1278
     52 H21        11.2661   -3.4459   11.2665 H         1 <0>         0.0556
     53 H22        11.4636   -4.8020   12.4025 H         1 <0>         0.0614
     54 H23        13.4094   -3.4190   12.3206 H         1 <0>         0.3842
     55 H24        10.1239   -7.0912   11.8055 H         1 <0>         0.3906
     56 H25         9.8040   -7.8539    8.4575 H         1 <0>         0.3935
     57 H26        11.0867   -4.8150    1.3227 H         1 <0>         0.4105
     58 H27        12.2821   -5.4868    2.2935 H         1 <0>         0.4221
@<TRIPOS>BOND
     1    1    6 ar
     2    1    2 ar
     3    1   35 1
     4    2    3 ar
     5    2   36 1
     6    3    4 ar
     7    3   37 1
     8    4    5 ar
     9    4    7 1
    10    5    6 ar
    11    5   38 1
    12    6   39 1
    13    7    8 1
    14    7   40 1
    15    7   41 1
    16    8    9 1
    17    8   42 1
    18    8   43 1
    19    9   10 1
    20    9   44 1
    21    9   45 1
    22   10   11 1
    23   10   46 1
    24   10   47 1
    25   11   12 1
    26   11   48 1
    27   11   49 1
    28   12   13 1
    29   13   18 ar
    30   13   14 ar
    31   14   15 ar
    32   15   16 ar
    33   15   34 1
    34   16   21 1
    35   16   17 ar
    36   17   18 ar
    37   17   19 1
    38   19   20 1
    39   19   22 1
    40   20   21 2
    41   20   50 1
    42   22   29 1
    43   22   23 1
    44   22   51 1
    45   23   24 1
    46   23   25 1
    47   23   33 1
    48   25   26 1
    49   25   27 1
    50   25   32 1
    51   27   28 1
    52   27   29 1
    53   27   30 1
    54   30   31 1
    55   30   52 1
    56   30   53 1
    57   31   54 1
    58   32   55 1
    59   33   56 1
    60   34   57 1
    61   34   58 1
