@<TRIPOS>MOLECULE
CHEMBL486131
   56    59     0     0     0
SMALL
USER_CHARGES

@<TRIPOS>ATOM
      1 C1         -0.2216    1.6584   -0.8272 C.3       1 <0>        -0.0746
      2 C2         -0.0899    0.1757   -0.5923 C.2       1 <0>         0.0936
      3 C3         -0.2438   -0.8239   -1.5605 C.2       1 <0>        -0.2633
      4 C4         -0.0485   -2.0199   -0.9601 C.2       1 <0>         0.1209
      5 N1          0.2213   -1.7826    0.3507 N.pl3     1 <0>        -0.3203
      6 N2          0.1932   -0.3961    0.5493 N.2       1 <0>        -0.2618
      7 C5          0.4842   -2.7472    1.3235 C.ar      1 <0>         0.6047
      8 N3          0.5940   -2.3728    2.5866 N.ar      1 <0>        -0.5259
      9 C6          0.8446   -3.2655    3.5436 C.ar      1 <0>         0.2746
     10 C7          0.9906   -4.6073    3.1956 C.ar      1 <0>        -0.2737
     11 C8          0.8675   -4.9596    1.8536 C.ar      1 <0>         0.4457
     12 N4          0.6114   -4.0121    0.9572 N.ar      1 <0>        -0.5303
     13 N5          1.0051   -6.2858    1.4576 N.am      1 <0>        -0.6544
     14 C9          0.9895   -6.6030    0.1478 C.2       1 <0>         0.5038
     15 O1          0.7628   -5.7470   -0.6807 O.2       1 <0>        -0.4403
     16 C10         1.2537   -8.0215   -0.2871 C.3       1 <0>         0.0386
     17 N6          1.1808   -8.1062   -1.7519 N.3       1 <0>        -0.5196
     18 C11        -0.1868   -7.8507   -2.2269 C.3       1 <0>         0.0117
     19 C12        -0.2052   -7.8895   -3.7573 C.3       1 <0>         0.0656
     20 O2          0.2957   -9.1527   -4.2032 O.3       1 <0>        -0.3858
     21 C13         1.6258   -9.4338   -3.7592 C.3       1 <0>         0.0640
     22 C14         1.6627   -9.4106   -2.2288 C.3       1 <0>         0.0185
     23 C15         0.9669   -2.8374    4.9586 C.ar      1 <0>        -0.0734
     24 C16         0.7132   -1.5128    5.3234 C.ar      1 <0>        -0.0565
     25 C17         0.8418   -1.1630    6.6614 C.ar      1 <0>         0.0754
     26 C18         1.2146   -2.1333    7.5817 C.ar      1 <0>         0.0355
     27 N7          1.4464   -3.3745    7.2021 N.ar      1 <0>        -0.4473
     28 C19         1.3309   -3.7515    5.9453 C.ar      1 <0>         0.0951
     29 O3          0.6060    0.1134    7.0646 O.3       1 <0>        -0.3065
     30 C20         0.7598    0.3926    8.4576 C.3       1 <0>         0.0216
     31 C21        -0.1179   -3.3709   -1.6242 C.3       1 <0>        -0.0808
     32 H1          0.7488    2.0699   -1.1049 H         1 <0>         0.0821
     33 H2         -0.9355    1.8369   -1.6313 H         1 <0>         0.0825
     34 H3         -0.5734    2.1409    0.0847 H         1 <0>         0.0767
     35 H4         -0.4779   -0.6674   -2.6031 H         1 <0>         0.1589
     36 H5          1.1945   -5.3551    3.9477 H         1 <0>         0.1595
     37 H6          1.1123   -6.9823    2.1241 H         1 <0>         0.4248
     38 H7          2.2465   -8.3245    0.0454 H         1 <0>         0.1126
     39 H8          0.5060   -8.6816    0.1527 H         1 <0>         0.0715
     40 H9         -0.8571   -8.6158   -1.8353 H         1 <0>         0.0400
     41 H10        -0.5139   -6.8691   -1.8838 H         1 <0>         0.1039
     42 H11        -1.2272   -7.7573   -4.1125 H         1 <0>         0.0991
     43 H12         0.4232   -7.0899   -4.1493 H         1 <0>         0.0634
     44 H13         1.9280  -10.4185   -4.1156 H         1 <0>         0.1006
     45 H14         2.3075   -8.6790   -4.1512 H         1 <0>         0.0620
     46 H15         2.6858   -9.5678   -1.8870 H         1 <0>         0.0893
     47 H16         1.0220  -10.2007   -1.8372 H         1 <0>         0.0468
     48 H17         0.4251   -0.7799    4.5843 H         1 <0>         0.1592
     49 H18         1.3166   -1.8674    8.6234 H         1 <0>         0.1645
     50 H19         1.5251   -4.7792    5.6759 H         1 <0>         0.1647
     51 H20         0.0706   -0.2277    9.0307 H         1 <0>         0.0601
     52 H21         1.7836    0.1740    8.7611 H         1 <0>         0.0602
     53 H22         0.5425    1.4444    8.6435 H         1 <0>         0.1072
     54 H23         0.8858   -3.6893   -1.9058 H         1 <0>         0.0868
     55 H24        -0.5477   -4.0945   -0.9315 H         1 <0>         0.0981
     56 H25        -0.7419   -3.3060   -2.5155 H         1 <0>         0.0710
@<TRIPOS>BOND
     1    1    2 1
     2    1   32 1
     3    1   33 1
     4    1   34 1
     5    2    6 2
     6    2    3 1
     7    3    4 2
     8    3   35 1
     9    4    5 1
    10    4   31 1
    11    5    6 1
    12    5    7 1
    13    7   12 ar
    14    7    8 ar
    15    8    9 ar
    16    9   10 ar
    17    9   23 1
    18   10   11 ar
    19   10   36 1
    20   11   12 ar
    21   11   13 1
    22   13   14 am
    23   13   37 1
    24   14   15 2
    25   14   16 1
    26   16   17 1
    27   16   38 1
    28   16   39 1
    29   17   22 1
    30   17   18 1
    31   18   19 1
    32   18   40 1
    33   18   41 1
    34   19   20 1
    35   19   42 1
    36   19   43 1
    37   20   21 1
    38   21   22 1
    39   21   44 1
    40   21   45 1
    41   22   46 1
    42   22   47 1
    43   23   28 ar
    44   23   24 ar
    45   24   25 ar
    46   24   48 1
    47   25   26 ar
    48   25   29 1
    49   26   27 ar
    50   26   49 1
    51   27   28 ar
    52   28   50 1
    53   29   30 1
    54   30   51 1
    55   30   52 1
    56   30   53 1
    57   31   54 1
    58   31   55 1
    59   31   56 1
