@<TRIPOS>MOLECULE
CHEMBL406315
   30    32     0     0     0
SMALL
USER_CHARGES

@<TRIPOS>ATOM
      1 C1         -0.0184    1.5028    0.0103 C.3       1 <0>        -0.0846
      2 C2          0.0021   -0.0041    0.0020 C.2       1 <0>         0.0497
      3 C3          0.0053   -0.6800   -1.1805 C.2       1 <0>        -0.1845
      4 S1          0.0319   -2.3694   -0.5939 S.3       1 <0>         0.0672
      5 C4          0.0359   -1.9924    1.1539 C.2       1 <0>         0.1201
      6 N1          0.0223   -0.6663    1.1319 N.2       1 <0>        -0.4472
      7 C5          0.0548   -2.9103    2.3105 C.ar      1 <0>         0.3603
      8 C6          0.0793   -4.2849    2.1272 C.ar      1 <0>        -0.2871
      9 C7          0.0974   -5.1702    3.2292 C.ar      1 <0>         0.2279
     10 C8          0.1210   -6.5374    2.9012 C.2       1 <0>        -0.1616
     11 C9          0.1256   -6.9244    1.6115 C.2       1 <0>        -0.0935
     12 S2          0.0956   -5.3734    0.7283 S.3       1 <0>         0.0859
     13 N2          0.0892   -4.5858    4.4515 N.ar      1 <0>        -0.5438
     14 C10         0.0658   -3.2779    4.5864 C.ar      1 <0>         0.5736
     15 N3          0.0543   -2.4374    3.5611 N.ar      1 <0>        -0.5080
     16 N4          0.0588   -2.7499    5.8685 N.pl3     1 <0>        -0.5904
     17 C11         0.0772   -3.6440    7.0290 C.3       1 <0>         0.1015
     18 C12         0.0329   -1.2981    6.0627 C.3       1 <0>         0.0998
     19 H1          1.0042    1.8801    0.0026 H         1 <0>         0.0770
     20 H2         -0.5455    1.8639   -0.8728 H         1 <0>         0.0769
     21 H3         -0.5286    1.8543    0.9071 H         1 <0>         0.0775
     22 H4         -0.0054   -0.3010   -2.1917 H         1 <0>         0.2067
     23 H5          0.1359   -7.2793    3.6860 H         1 <0>         0.1544
     24 H6          0.1430   -7.9269    1.2100 H         1 <0>         0.2060
     25 H7          1.1093   -3.8471    7.3148 H         1 <0>         0.0541
     26 H8         -0.4437   -3.1701    7.8610 H         1 <0>         0.0717
     27 H9         -0.4203   -4.5798    6.7745 H         1 <0>         0.0810
     28 H10        -1.0010   -0.9566    6.1129 H         1 <0>         0.0545
     29 H11         0.5440   -1.0466    6.9920 H         1 <0>         0.0717
     30 H12         0.5363   -0.8108    5.2278 H         1 <0>         0.0832
@<TRIPOS>BOND
     1    1    2 1
     2    1   19 1
     3    1   20 1
     4    1   21 1
     5    2    6 1
     6    2    3 2
     7    3    4 1
     8    3   22 1
     9    4    5 1
    10    5    6 2
    11    5    7 1
    12    7   15 ar
    13    7    8 ar
    14    8   12 1
    15    8    9 ar
    16    9   10 1
    17    9   13 ar
    18   10   11 2
    19   10   23 1
    20   11   12 1
    21   11   24 1
    22   13   14 ar
    23   14   15 ar
    24   14   16 1
    25   16   17 1
    26   16   18 1
    27   17   25 1
    28   17   26 1
    29   17   27 1
    30   18   28 1
    31   18   29 1
    32   18   30 1
