@<TRIPOS>MOLECULE
CHEMBL481132
   49    54     0     0     0
SMALL
USER_CHARGES

@<TRIPOS>ATOM
      1 C1         -0.0162    1.3433    0.0094 C.2       1 <0>        -0.2200
      2 C2          1.3252    1.7744   -0.0011 C.2       1 <0>        -0.1370
      3 C3          2.0962    0.6548   -0.0144 C.2       1 <0>         0.0420
      4 O1          1.2797   -0.4166   -0.0124 O.3       1 <0>        -0.1521
      5 C4          0.0021   -0.0041    0.0020 C.2       1 <0>        -0.0039
      6 C5          3.5736    0.6193   -0.0287 C.2       1 <0>         0.3508
      7 N1          4.3223   -0.4908   -0.0472 N.2       1 <0>        -0.5159
      8 C6          5.5979   -0.1638   -0.0558 C.2       1 <0>         0.4063
      9 C7          6.8494   -0.9218   -0.0750 C.2       1 <0>        -0.2669
     10 C8          7.1770   -2.2895   -0.0925 C.2       1 <0>         0.1316
     11 N2          8.4769   -2.4024   -0.1057 N.2       1 <0>        -0.2629
     12 N3          9.0564   -1.1275   -0.0976 N.pl3     1 <0>        -0.3553
     13 C9          8.0548   -0.2036   -0.0786 C.2       1 <0>         0.3706
     14 N4          8.0263    1.1363   -0.0638 N.2       1 <0>        -0.5615
     15 C10         6.9037    1.8122   -0.0459 C.2       1 <0>         0.6923
     16 N5          5.6820    1.2042   -0.0426 N.pl3     1 <0>        -0.3764
     17 N6          4.3634    1.6766   -0.0311 N.2       1 <0>        -0.2996
     18 N7          6.9590    3.1863   -0.0316 N.pl3     1 <0>        -0.8020
     19 C11        10.4923   -0.8370   -0.1068 C.3       1 <0>         0.1440
     20 C12        10.9797   -0.7205   -1.5524 C.3       1 <0>        -0.0979
     21 C13        12.4568   -0.4217   -1.5619 C.ar      1 <0>        -0.0686
     22 C14        12.8944    0.8905   -1.5460 C.ar      1 <0>        -0.1154
     23 C15        14.2459    1.1700   -1.5550 C.ar      1 <0>        -0.0737
     24 C16        15.1703    0.1273   -1.5798 C.ar      1 <0>        -0.0523
     25 C17        14.7237   -1.1927   -1.5953 C.ar      1 <0>        -0.0940
     26 C18        13.3698   -1.4606   -1.5808 C.ar      1 <0>        -0.1125
     27 C19        16.6241    0.4215   -1.5901 C.ar      1 <0>         0.1213
     28 C20        17.5491   -0.6223   -1.6208 C.ar      1 <0>         0.0592
     29 N8         18.8415   -0.3551   -1.6303 N.ar      1 <0>        -0.4329
     30 C21        19.2593    0.8992   -1.6109 C.ar      1 <0>         0.0437
     31 C22        18.3450    1.9377   -1.5800 C.ar      1 <0>         0.0599
     32 N9         17.0498    1.6806   -1.5758 N.ar      1 <0>        -0.4351
     33 H1         -0.8931    1.9736    0.0252 H         1 <0>         0.1594
     34 H2          1.6736    2.7966    0.0006 H         1 <0>         0.1599
     35 H3         -0.8667   -0.6456    0.0076 H         1 <0>         0.2142
     36 H4          6.4721   -3.1077   -0.0946 H         1 <0>         0.2026
     37 H5          7.8178    3.6373   -0.0348 H         1 <0>         0.4305
     38 H6          6.1392    3.7046   -0.0183 H         1 <0>         0.4265
     39 H7         10.6764    0.1019    0.4155 H         1 <0>         0.1021
     40 H8         11.0292   -1.6426    0.3939 H         1 <0>         0.1045
     41 H9         10.7956   -1.6593   -2.0747 H         1 <0>         0.0867
     42 H10        10.4428    0.0852   -2.0531 H         1 <0>         0.0821
     43 H11        12.1772    1.6977   -1.5268 H         1 <0>         0.1293
     44 H12        14.5865    2.1948   -1.5433 H         1 <0>         0.1363
     45 H13        15.4356   -2.0046   -1.6149 H         1 <0>         0.1302
     46 H14        13.0226   -2.4832   -1.5887 H         1 <0>         0.1317
     47 H15        17.2083   -1.6470   -1.6363 H         1 <0>         0.1714
     48 H16        20.3177    1.1141   -1.6188 H         1 <0>         0.1728
     49 H17        18.6914    2.9605   -1.5635 H         1 <0>         0.1741
@<TRIPOS>BOND
     1    1    5 2
     2    1    2 1
     3    1   33 1
     4    2    3 2
     5    2   34 1
     6    3    4 1
     7    3    6 1
     8    4    5 1
     9    5   35 1
    10    6   17 2
    11    6    7 1
    12    7    8 2
    13    8   16 1
    14    8    9 1
    15    9   13 2
    16    9   10 1
    17   10   11 2
    18   10   36 1
    19   11   12 1
    20   12   13 1
    21   12   19 1
    22   13   14 1
    23   14   15 2
    24   15   16 1
    25   15   18 1
    26   16   17 1
    27   18   37 1
    28   18   38 1
    29   19   20 1
    30   19   39 1
    31   19   40 1
    32   20   21 1
    33   20   41 1
    34   20   42 1
    35   21   26 ar
    36   21   22 ar
    37   22   23 ar
    38   22   43 1
    39   23   24 ar
    40   23   44 1
    41   24   25 ar
    42   24   27 1
    43   25   26 ar
    44   25   45 1
    45   26   46 1
    46   27   32 ar
    47   27   28 ar
    48   28   29 ar
    49   28   47 1
    50   29   30 ar
    51   30   31 ar
    52   30   48 1
    53   31   32 ar
    54   31   49 1
