@<TRIPOS>MOLECULE
CHEMBL610651
   53    56     0     0     0
SMALL
USER_CHARGES

@<TRIPOS>ATOM
      1 C1         -0.0164    1.3590    0.0095 C.2       1 <0>         0.2666
      2 N1          1.2006    1.8206    0.0004 N.2       1 <0>        -0.4578
      3 C2          2.0754    0.7871   -0.0135 C.ar      1 <0>        -0.1045
      4 C3          3.4784    0.6816   -0.0279 C.ar      1 <0>         0.5144
      5 N2          4.0240   -0.5276   -0.0400 N.ar      1 <0>        -0.5721
      6 C4          3.2683   -1.6225   -0.0386 C.ar      1 <0>         0.5024
      7 N3          1.9438   -1.5670   -0.0257 N.ar      1 <0>        -0.5301
      8 C5          1.3171   -0.3971   -0.0127 C.ar      1 <0>         0.3175
      9 N4          0.0021   -0.0041    0.0020 N.pl3     1 <0>        -0.4697
     10 C6         -1.1668   -0.8871    0.0089 C.3       1 <0>         0.3130
     11 C7         -1.5540   -1.2556    1.4583 C.3       1 <0>         0.0789
     12 H1         -1.1953   -0.4970    2.1540 H         1 <0>         0.0861
     13 C8         -3.0987   -1.2847    1.4384 C.3       1 <0>         0.0475
     14 H2         -3.5036   -0.5406    2.1242 H         1 <0>         0.0876
     15 C9         -3.4621   -0.9305   -0.0207 C.3       1 <0>         0.0504
     16 H3         -3.6135   -1.8381   -0.6051 H         1 <0>         0.1003
     17 O1         -2.3213   -0.1972   -0.5174 O.3       1 <0>        -0.3465
     18 C10        -4.7178   -0.0573   -0.0599 C.3       1 <0>         0.0823
     19 O2         -5.1032    0.1621   -1.4183 O.3       1 <0>        -0.5634
     20 O3         -3.5792   -2.5878    1.7747 O.3       1 <0>        -0.5386
     21 O4         -1.0307   -2.5391    1.8055 O.3       1 <0>        -0.5255
     22 C11         3.9070   -2.9041   -0.0520 C.1       1 <0>        -0.1315
     23 C12         4.4307   -3.9548   -0.0630 C.1       1 <0>        -0.0783
     24 C13         5.0872   -5.2722   -0.0768 C.3       1 <0>        -0.0096
     25 C14         4.0237   -6.3721   -0.0724 C.3       1 <0>        -0.0834
     26 C15         3.2439   -6.3223    1.2429 C.3       1 <0>        -0.1171
     27 C16         2.1803   -7.4222    1.2473 C.3       1 <0>        -0.1196
     28 C17         2.8576   -8.7870    1.1073 C.3       1 <0>        -0.1212
     29 C18         3.6375   -8.8369   -0.2080 C.3       1 <0>        -0.1199
     30 C19         4.7010   -7.7369   -0.2124 C.3       1 <0>        -0.1148
     31 N5          4.2724    1.8152   -0.0299 N.pl3     1 <0>        -0.8147
     32 H4         -0.9093    1.9664    0.0254 H         1 <0>         0.2253
     33 H5         -0.9651   -1.7870   -0.5722 H         1 <0>         0.1242
     34 H6         -5.5265   -0.5599    0.4706 H         1 <0>         0.0672
     35 H7         -4.5097    0.9001    0.4179 H         1 <0>         0.0612
     36 H8         -5.8941    0.7093   -1.5193 H         1 <0>         0.3868
     37 H9         -4.5433   -2.6629    1.7773 H         1 <0>         0.3874
     38 H10        -1.2440   -2.8205    2.7057 H         1 <0>         0.3909
     39 H11         5.7004   -5.3632   -0.9733 H         1 <0>         0.0969
     40 H12         5.7179   -5.3731    0.8065 H         1 <0>         0.0958
     41 H13         3.3392   -6.2190   -0.9067 H         1 <0>         0.0769
     42 H14         3.9284   -6.4755    2.0772 H         1 <0>         0.0630
     43 H15         2.7614   -5.3500    1.3427 H         1 <0>         0.0648
     44 H16         1.6247   -7.3867    2.1844 H         1 <0>         0.0609
     45 H17         1.4958   -7.2690    0.4130 H         1 <0>         0.0615
     46 H18         3.5421   -8.9402    1.9416 H         1 <0>         0.0613
     47 H19         2.0999   -9.5706    1.1104 H         1 <0>         0.0600
     48 H20         4.1200   -9.8092   -0.3078 H         1 <0>         0.0622
     49 H21         2.9529   -8.6837   -1.0423 H         1 <0>         0.0618
     50 H22         5.2566   -7.7724   -1.1495 H         1 <0>         0.0649
     51 H23         5.3855   -7.8901    0.6219 H         1 <0>         0.0654
     52 H24         3.8626    2.6943   -0.0213 H         1 <0>         0.4207
     53 H25         5.2386    1.7306   -0.0398 H         1 <0>         0.4120
@<TRIPOS>BOND
     1    1    9 1
     2    1    2 2
     3    1   32 1
     4    2    3 1
     5    3    8 ar
     6    3    4 ar
     7    4    5 ar
     8    4   31 1
     9    5    6 ar
    10    6    7 ar
    11    6   22 1
    12    7    8 ar
    13    8    9 1
    14    9   10 1
    15   10   17 1
    16   10   11 1
    17   10   33 1
    18   11   12 1
    19   11   13 1
    20   11   21 1
    21   13   14 1
    22   13   15 1
    23   13   20 1
    24   15   16 1
    25   15   17 1
    26   15   18 1
    27   18   19 1
    28   18   34 1
    29   18   35 1
    30   19   36 1
    31   20   37 1
    32   21   38 1
    33   22   23 3
    34   23   24 1
    35   24   25 1
    36   24   39 1
    37   24   40 1
    38   25   30 1
    39   25   26 1
    40   25   41 1
    41   26   27 1
    42   26   42 1
    43   26   43 1
    44   27   28 1
    45   27   44 1
    46   27   45 1
    47   28   29 1
    48   28   46 1
    49   28   47 1
    50   29   30 1
    51   29   48 1
    52   29   49 1
    53   30   50 1
    54   30   51 1
    55   31   52 1
    56   31   53 1
