@<TRIPOS>MOLECULE
CHEMBL22113
   50    54     0     0     0
SMALL
USER_CHARGES

@<TRIPOS>ATOM
      1 C1          0.0042    1.4606    0.0090 C.3       1 <0>         0.0814
      2 N1          0.0164   -0.0043    0.0011 N.pl3     1 <0>        -0.3202
      3 C2          0.0118   -0.7753   -1.1065 C.2       1 <0>         0.1335
      4 C3          0.0279   -2.0948   -0.6949 C.2       1 <0>        -0.2205
      5 C4          0.0431   -2.0777    0.7765 C.2       1 <0>         0.3064
      6 N2          0.0409   -0.8157    1.1411 N.2       1 <0>        -0.2372
      7 N3          0.0602   -3.2661    1.4367 N.2       1 <0>        -0.4417
      8 C5          0.0634   -4.4057    0.8028 C.2       1 <0>         0.6694
      9 N4          0.0501   -4.5174   -0.5611 N.pl3     1 <0>        -0.3741
     10 C6          0.0322   -3.4010   -1.3562 C.2       1 <0>         0.4086
     11 N5          0.0221   -3.7959   -2.6111 N.2       1 <0>        -0.4912
     12 C7          0.0328   -5.1352   -2.6614 C.2       1 <0>         0.3449
     13 N6          0.0509   -5.6155   -1.4338 N.2       1 <0>        -0.2908
     14 C8          0.0260   -5.9453   -3.8973 C.2       1 <0>         0.0437
     15 C9          0.0313   -7.3033   -3.9611 C.2       1 <0>        -0.1370
     16 C10         0.0214   -7.6454   -5.3279 C.2       1 <0>        -0.2197
     17 C11         0.0107   -6.4914   -6.0237 C.2       1 <0>        -0.0041
     18 O1          0.0076   -5.4665   -5.1562 O.3       1 <0>        -0.1511
     19 N7          0.0816   -5.5664    1.5507 N.am      1 <0>        -0.6467
     20 C12         0.0956   -5.5006    2.8968 C.2       1 <0>         0.7008
     21 O2          0.0921   -4.4194    3.4526 O.2       1 <0>        -0.4888
     22 N8          0.1134   -6.6335    3.6267 N.am      1 <0>        -0.6722
     23 C13         0.2256   -6.5663    5.0220 C.ar      1 <0>         0.1174
     24 C14         0.9442   -7.5359    5.7084 C.ar      1 <0>        -0.0990
     25 C15         1.0548   -7.4689    7.0833 C.ar      1 <0>        -0.1337
     26 C16         0.4478   -6.4334    7.7786 C.ar      1 <0>         0.1175
     27 C17        -0.2707   -5.4645    7.0934 C.ar      1 <0>        -0.1888
     28 C18        -0.3769   -5.5270    5.7179 C.ar      1 <0>        -0.0746
     29 O3          0.5567   -6.3682    9.1324 O.3       1 <0>        -0.3175
     30 C19        -0.0935   -5.2749    9.7837 C.3       1 <0>         0.0260
     31 S1         -0.0113   -0.2041   -2.7732 S.3       1 <0>        -0.0174
     32 C20         1.5029    0.7841   -2.9195 C.3       1 <0>        -0.1578
     33 H1          1.0287    1.8326   -0.0045 H         1 <0>         0.0900
     34 H2         -0.5260    1.8242   -0.8713 H         1 <0>         0.1059
     35 H3         -0.4992    1.8149    0.9085 H         1 <0>         0.1098
     36 H4          0.0416   -7.9876   -3.1257 H         1 <0>         0.1601
     37 H5          0.0223   -8.6437   -5.7401 H         1 <0>         0.1592
     38 H6          0.0014   -6.4052   -7.1002 H         1 <0>         0.2138
     39 H7          0.0845   -6.4291    1.1073 H         1 <0>         0.4283
     40 H8          0.0486   -7.4953    3.1863 H         1 <0>         0.4102
     41 H9          1.4162   -8.3426    5.1672 H         1 <0>         0.1344
     42 H10         1.6137   -8.2231    7.6173 H         1 <0>         0.1367
     43 H11        -0.7436   -4.6590    7.6354 H         1 <0>         0.1328
     44 H12        -0.9322   -4.7700    5.1842 H         1 <0>         0.1454
     45 H13         0.3149   -4.3354    9.4114 H         1 <0>         0.0568
     46 H14        -1.1631   -5.3132    9.5774 H         1 <0>         0.0564
     47 H15         0.0718   -5.3423   10.8589 H         1 <0>         0.1010
     48 H16         1.4713    1.6054   -2.2034 H         1 <0>         0.0830
     49 H17         2.3687    0.1550   -2.7129 H         1 <0>         0.0887
     50 H18         1.5784    1.1858   -3.9299 H         1 <0>         0.1219
@<TRIPOS>BOND
     1    1    2 1
     2    1   33 1
     3    1   34 1
     4    1   35 1
     5    2    6 1
     6    2    3 1
     7    3    4 2
     8    3   31 1
     9    4   10 1
    10    4    5 1
    11    5    6 2
    12    5    7 1
    13    7    8 2
    14    8    9 1
    15    8   19 1
    16    9   13 1
    17    9   10 1
    18   10   11 2
    19   11   12 1
    20   12   13 2
    21   12   14 1
    22   14   18 1
    23   14   15 2
    24   15   16 1
    25   15   36 1
    26   16   17 2
    27   16   37 1
    28   17   18 1
    29   17   38 1
    30   19   20 am
    31   19   39 1
    32   20   21 2
    33   20   22 am
    34   22   23 1
    35   22   40 1
    36   23   28 ar
    37   23   24 ar
    38   24   25 ar
    39   24   41 1
    40   25   26 ar
    41   25   42 1
    42   26   27 ar
    43   26   29 1
    44   27   28 ar
    45   27   43 1
    46   28   44 1
    47   29   30 1
    48   30   45 1
    49   30   46 1
    50   30   47 1
    51   31   32 1
    52   32   48 1
    53   32   49 1
    54   32   50 1
