@<TRIPOS>MOLECULE
CHEMBL363647
   46    49     0     0     0
SMALL
USER_CHARGES

@<TRIPOS>ATOM
      1 C1         -0.0167    1.3781    0.0096 C.ar      1 <0>        -0.1191
      2 C2          1.1709    2.0855    0.0021 C.ar      1 <0>        -0.1169
      3 C3          2.3773    1.4107   -0.0130 C.ar      1 <0>        -0.1172
      4 C4          2.3960    0.0285   -0.0201 C.ar      1 <0>        -0.0912
      5 C5          1.2084   -0.6789   -0.0117 C.ar      1 <0>        -0.1172
      6 C6          0.0021   -0.0041    0.0020 C.ar      1 <0>        -0.1169
      7 C7          3.7112   -0.7071   -0.0376 C.3       1 <0>        -0.0771
      8 C8          4.1714   -0.9633    1.3989 C.3       1 <0>        -0.1280
      9 C9          5.5066   -1.7102    1.3812 C.3       1 <0>         0.1136
     10 N1          5.9472   -1.9554    2.7567 N.am      1 <0>        -0.7151
     11 C10         7.1061   -2.6035    2.9876 C.2       1 <0>         0.5746
     12 O1          7.7859   -2.9846    2.0544 O.2       1 <0>        -0.4758
     13 C11         7.5503   -2.8508    4.3742 C.2       1 <0>         0.0015
     14 C12         8.7275   -3.5026    4.5882 C.2       1 <0>         0.1959
     15 N2          9.1601   -3.7433    5.8535 N.pl3     1 <0>        -0.2745
     16 C13         8.4027   -3.3246    6.9146 C.2       1 <0>         0.2276
     17 C14         7.1450   -2.6276    6.6439 C.cat     1 <0>         0.5721
     18 N3          6.7854   -2.4220    5.3939 N.pl3     1 <0>        -0.4927
     19 N4          6.3464   -2.1866    7.6873 N.pl3     1 <0>        -0.7453
     20 N5          9.0320   -3.6741    8.0209 N.2       1 <0>        -0.4316
     21 C15        10.1685   -4.3035    7.7125 C.2       1 <0>         0.3666
     22 N6         10.2883   -4.3688    6.3962 N.2       1 <0>        -0.2150
     23 C16        11.1398   -4.8419    8.6876 C.2       1 <0>        -0.0001
     24 C17        12.3023   -5.4794    8.3868 C.2       1 <0>        -0.1027
     25 C18        12.9083   -5.8183    9.6127 C.2       1 <0>        -0.2196
     26 C19        12.0943   -5.3754   10.5912 C.2       1 <0>         0.0246
     27 O2         11.0299   -4.7811   10.0288 O.3       1 <0>        -0.1532
     28 H1         -0.9591    1.9053    0.0259 H         1 <0>         0.1239
     29 H2          1.1563    3.1654    0.0076 H         1 <0>         0.1239
     30 H3          3.3051    1.9634   -0.0196 H         1 <0>         0.1211
     31 H4          1.2231   -1.7588   -0.0176 H         1 <0>         0.1211
     32 H5         -0.9258   -0.5567    0.0082 H         1 <0>         0.1238
     33 H6          3.5884   -1.6586   -0.5549 H         1 <0>         0.0799
     34 H7          4.4573   -0.1052   -0.5563 H         1 <0>         0.0800
     35 H8          4.2941   -0.0118    1.9163 H         1 <0>         0.0746
     36 H9          3.4252   -1.5652    1.9176 H         1 <0>         0.0746
     37 H10         5.3838   -2.6617    0.8639 H         1 <0>         0.0869
     38 H11         6.2527   -1.1082    0.8625 H         1 <0>         0.0869
     39 H12         5.4048   -1.6514    3.5012 H         1 <0>         0.3931
     40 H13         9.3202   -3.8302    3.7469 H         1 <0>         0.2335
     41 H14         6.6198   -2.3393    8.6053 H         1 <0>         0.4585
     42 H15         5.5140   -1.7253    7.4995 H         1 <0>         0.4410
     43 H16        12.6867   -5.6865    7.3990 H         1 <0>         0.1671
     44 H17        13.8474   -6.3354    9.7435 H         1 <0>         0.1686
     45 H18        12.2711   -5.4776   11.6517 H         1 <0>         0.2232
     46 H19         5.9547   -1.9579    5.2059 H         1 <0>         0.4510
@<TRIPOS>BOND
     1    1    6 ar
     2    1    2 ar
     3    1   28 1
     4    2    3 ar
     5    2   29 1
     6    3    4 ar
     7    3   30 1
     8    4    5 ar
     9    4    7 1
    10    5    6 ar
    11    5   31 1
    12    6   32 1
    13    7    8 1
    14    7   33 1
    15    7   34 1
    16    8    9 1
    17    8   35 1
    18    8   36 1
    19    9   10 1
    20    9   37 1
    21    9   38 1
    22   10   11 am
    23   10   39 1
    24   11   12 2
    25   11   13 1
    26   13   18 1
    27   13   14 2
    28   14   15 1
    29   14   40 1
    30   15   22 1
    31   15   16 1
    32   16   17 1
    33   16   20 2
    34   17   18 2
    35   17   19 1
    36   18   46 1
    37   19   41 1
    38   19   42 1
    39   20   21 1
    40   21   22 2
    41   21   23 1
    42   23   27 1
    43   23   24 2
    44   24   25 1
    45   24   43 1
    46   25   26 2
    47   25   44 1
    48   26   27 1
    49   26   45 1
