@<TRIPOS>MOLECULE
CHEMBL1095811
   55    59     0     0     0
SMALL
USER_CHARGES

@<TRIPOS>ATOM
      1 C1         -0.0167    1.3793    0.0096 C.ar      1 <0>        -0.0938
      2 C2          1.1685    2.0928    0.0021 C.ar      1 <0>        -0.1348
      3 C3          2.3774    1.4278   -0.0129 C.ar      1 <0>        -0.0669
      4 C4          2.4029    0.0333   -0.0206 C.ar      1 <0>        -0.0797
      5 C5          1.2046   -0.6805   -0.0130 C.ar      1 <0>        -0.0585
      6 C6          0.0021   -0.0041    0.0020 C.ar      1 <0>        -0.1275
      7 C7          3.6972   -0.6867   -0.0373 C.ar      1 <0>         0.3375
      8 C8          3.8485   -1.9052    0.6418 C.ar      1 <0>        -0.3406
      9 C9          5.0990   -2.5520    0.5965 C.ar      1 <0>         0.3021
     10 N1          6.0850   -1.9873   -0.0846 N.ar      1 <0>        -0.5621
     11 C10         5.9021   -0.8317   -0.7150 C.ar      1 <0>         0.5999
     12 N2          4.7422   -0.1939   -0.7024 N.ar      1 <0>        -0.5695
     13 N3          6.9569   -0.2801   -1.4120 N.pl3     1 <0>        -0.8060
     14 C11         5.0073   -3.8086    1.3828 C.ar      1 <0>         0.0146
     15 C12         5.9358   -4.7988    1.6558 C.ar      1 <0>        -0.1426
     16 C13         5.5750   -5.8959    2.4403 C.ar      1 <0>         0.2457
     17 C14         4.2862   -5.9985    2.9488 C.ar      1 <0>        -0.1931
     18 C15         3.3534   -5.0149    2.6806 C.ar      1 <0>         0.0052
     19 C16         3.7034   -3.9174    1.9004 C.ar      1 <0>        -0.2113
     20 C17         2.9375   -2.7308    1.4534 C.2       1 <0>         0.4679
     21 O1          1.7751   -2.4843    1.7089 O.2       1 <0>        -0.4239
     22 N4          6.5081   -6.8890    2.7129 N.pl3     1 <0>        -0.7351
     23 C18         6.1322   -8.0414    3.5358 C.3       1 <0>         0.1176
     24 C19         7.3334   -8.9777    3.6812 C.3       1 <0>         0.0487
     25 N5          6.9565  -10.1332    4.5063 N.3       1 <0>        -0.5538
     26 C20         6.6199   -9.7172    5.8697 C.3       1 <0>         0.0546
     27 C21         5.8277  -10.8252    6.5717 C.3       1 <0>        -0.5970
     28 S1          6.8770  -12.3068    6.6800 S.o2      1 <0>         2.4102
     29 O2          6.0589  -13.4171    7.0226 O.2       1 <0>        -0.9377
     30 O3          8.0075  -12.0033    7.4856 O.2       1 <0>        -0.9370
     31 C22         7.4232  -12.4995    4.9559 C.3       1 <0>        -0.5972
     32 C23         7.9976  -11.1629    4.4744 C.3       1 <0>         0.0651
     33 H1         -0.9604    1.9042    0.0260 H         1 <0>         0.1259
     34 H2          1.1475    3.1726    0.0077 H         1 <0>         0.1276
     35 H3          3.3020    1.9859   -0.0191 H         1 <0>         0.1287
     36 H4          1.2180   -1.7604   -0.0193 H         1 <0>         0.1361
     37 H5         -0.9264   -0.5557    0.0082 H         1 <0>         0.1286
     38 H6          7.8133   -0.7350   -1.4359 H         1 <0>         0.4189
     39 H7          6.8423    0.5627   -1.8783 H         1 <0>         0.4204
     40 H8          6.9385   -4.7227    1.2620 H         1 <0>         0.1369
     41 H9          4.0125   -6.8494    3.5551 H         1 <0>         0.1364
     42 H10         2.3523   -5.0978    3.0772 H         1 <0>         0.1393
     43 H11         7.4083   -6.8192    2.3584 H         1 <0>         0.4048
     44 H12         5.8184   -7.6972    4.5212 H         1 <0>         0.0690
     45 H13         5.3106   -8.5758    3.0588 H         1 <0>         0.0792
     46 H14         7.6473   -9.3219    2.6958 H         1 <0>         0.0917
     47 H15         8.1551   -8.4433    4.1581 H         1 <0>         0.0521
     48 H16         7.5370   -9.5202    6.4250 H         1 <0>         0.0636
     49 H17         6.0180   -8.8092    5.8331 H         1 <0>         0.1044
     50 H18         5.5510  -10.4985    7.5741 H         1 <0>         0.1413
     51 H19         4.9299  -11.0535    5.9973 H         1 <0>         0.1442
     52 H20         8.1920  -13.2700    4.8993 H         1 <0>         0.1411
     53 H21         6.5742  -12.7790    4.3320 H         1 <0>         0.1441
     54 H22         8.3665  -11.2736    3.4547 H         1 <0>         0.1020
     55 H23         8.8200  -10.8667    5.1256 H         1 <0>         0.0630
@<TRIPOS>BOND
     1    1    6 ar
     2    1    2 ar
     3    1   33 1
     4    2    3 ar
     5    2   34 1
     6    3    4 ar
     7    3   35 1
     8    4    5 ar
     9    4    7 1
    10    5    6 ar
    11    5   36 1
    12    6   37 1
    13    7   12 ar
    14    7    8 ar
    15    8   20 1
    16    8    9 ar
    17    9   10 ar
    18    9   14 1
    19   10   11 ar
    20   11   12 ar
    21   11   13 1
    22   13   38 1
    23   13   39 1
    24   14   19 ar
    25   14   15 ar
    26   15   16 ar
    27   15   40 1
    28   16   17 ar
    29   16   22 1
    30   17   18 ar
    31   17   41 1
    32   18   19 ar
    33   18   42 1
    34   19   20 1
    35   20   21 2
    36   22   23 1
    37   22   43 1
    38   23   24 1
    39   23   44 1
    40   23   45 1
    41   24   25 1
    42   24   46 1
    43   24   47 1
    44   25   32 1
    45   25   26 1
    46   26   27 1
    47   26   48 1
    48   26   49 1
    49   27   28 1
    50   27   50 1
    51   27   51 1
    52   28   29 2
    53   28   30 2
    54   28   31 1
    55   31   32 1
    56   31   52 1
    57   31   53 1
    58   32   54 1
    59   32   55 1
