@<TRIPOS>MOLECULE
CHEMBL175476
   64    69     0     0     0
SMALL
USER_CHARGES

@<TRIPOS>ATOM
      1 C1          2.3994    1.4029    0.0054 C.ar      1 <0>        -0.0728
      2 C2          1.2013    2.0888    0.0039 C.ar      1 <0>        -0.1430
      3 C3         -0.0040    1.3876   -0.0062 C.ar      1 <0>        -0.0100
      4 C4          0.0052   -0.0057   -0.0147 C.ar      1 <0>        -0.1496
      5 C5          1.2130   -0.6867   -0.0131 C.ar      1 <0>         0.2108
      6 C6          2.4095    0.0211   -0.0030 C.ar      1 <0>        -0.1769
      7 N1          1.2276   -2.0836   -0.0212 N.pl3     1 <0>        -0.6290
      8 C7          2.4950   -2.8177   -0.1418 C.3       1 <0>         0.1083
      9 C8          2.6151   -3.7858    1.0417 C.3       1 <0>         0.0969
     10 N2          1.3634   -4.5476    1.1541 N.am      1 <0>        -0.6146
     11 C9          0.0959   -3.8135    1.2747 C.3       1 <0>         0.0909
     12 C10        -0.0237   -2.8453    0.0969 C.3       1 <0>         0.1062
     13 C11         1.3774   -5.8952    1.1464 C.2       1 <0>         0.5184
     14 O1          2.4295   -6.4901    1.0459 O.2       1 <0>        -0.5172
     15 C12         0.0858   -6.6629    1.2625 C.3       1 <0>         0.0372
     16 N3          0.3682   -8.1042    1.2294 N.3       1 <0>        -0.5207
     17 C13         0.8909   -8.5086   -0.0838 C.3       1 <0>         0.0135
     18 C14         1.2268  -10.0020   -0.0554 C.3       1 <0>         0.0653
     19 O2          0.0595  -10.7412    0.3138 O.3       1 <0>        -0.3862
     20 C15        -0.4759  -10.3733    1.5879 C.3       1 <0>         0.0640
     21 C16        -0.8291   -8.8837    1.5761 C.3       1 <0>         0.0178
     22 C17        -1.2912    2.1223   -0.0073 C.2       1 <0>         0.2511
     23 C18        -1.2966    3.5055   -0.0041 C.2       1 <0>        -0.2134
     24 C19        -2.5360    4.1706   -0.0058 C.2       1 <0>         0.3531
     25 N4         -2.8886    5.4466   -0.0038 N.2       1 <0>        -0.5234
     26 C20        -4.2219    5.5430   -0.0069 C.2       1 <0>         0.3543
     27 N5         -4.7487    4.3315   -0.0111 N.2       1 <0>        -0.3217
     28 N6         -3.6845    3.4206   -0.0104 N.pl3     1 <0>        -0.3616
     29 C21        -3.6091    2.0608   -0.0130 C.2       1 <0>         0.6530
     30 N7         -2.4494    1.4444   -0.0170 N.2       1 <0>        -0.5493
     31 N8         -4.7679    1.3199   -0.0172 N.pl3     1 <0>        -0.8082
     32 C22        -4.9872    6.8074   -0.0052 C.2       1 <0>         0.0359
     33 C23        -4.4585    8.0598   -0.0061 C.2       1 <0>        -0.1263
     34 C24        -5.5437    8.9584   -0.0038 C.2       1 <0>        -0.2189
     35 C25        -6.6695    8.2178   -0.0017 C.2       1 <0>        -0.0075
     36 O3         -6.3296    6.9190   -0.0084 O.3       1 <0>        -0.1608
     37 H1          3.3318    1.9479    0.0086 H         1 <0>         0.1301
     38 H2          1.1976    3.1688    0.0109 H         1 <0>         0.1296
     39 H3         -0.9256   -0.5536   -0.0221 H         1 <0>         0.1368
     40 H4          3.3496   -0.5106   -0.0021 H         1 <0>         0.1268
     41 H5          2.5052   -3.3790   -1.0761 H         1 <0>         0.0684
     42 H6          3.3279   -2.1148   -0.1253 H         1 <0>         0.0976
     43 H7          3.4460   -4.4705    0.8713 H         1 <0>         0.1041
     44 H8          2.7843   -3.2226    1.9594 H         1 <0>         0.0734
     45 H9         -0.7370   -4.5164    1.2583 H         1 <0>         0.0938
     46 H10         0.0857   -3.2522    2.2091 H         1 <0>         0.0780
     47 H11        -0.8537   -2.1607    0.2710 H         1 <0>         0.0992
     48 H12        -0.1969   -3.4087   -0.8200 H         1 <0>         0.0674
     49 H13        -0.4038   -6.4101    2.2030 H         1 <0>         0.1062
     50 H14        -0.5682   -6.4016    0.4306 H         1 <0>         0.0656
     51 H15         0.1382   -8.3194   -0.8491 H         1 <0>         0.0382
     52 H16         1.7914   -7.9372   -0.3088 H         1 <0>         0.1037
     53 H17         1.5609  -10.3188   -1.0434 H         1 <0>         0.0990
     54 H18         2.0177  -10.1834    0.6724 H         1 <0>         0.0628
     55 H19        -1.3733  -10.9586    1.7883 H         1 <0>         0.1003
     56 H20         0.2655  -10.5655    2.3635 H         1 <0>         0.0616
     57 H21        -1.1841   -8.5860    2.5628 H         1 <0>         0.0881
     58 H22        -1.6093   -8.7004    0.8373 H         1 <0>         0.0452
     59 H23        -0.3709    4.0618   -0.0001 H         1 <0>         0.1687
     60 H24        -5.6290    1.7664   -0.0184 H         1 <0>         0.4244
     61 H25        -4.7241    0.3509   -0.0191 H         1 <0>         0.4287
     62 H26        -3.4095    8.3164   -0.0079 H         1 <0>         0.1633
     63 H27        -5.4845   10.0368   -0.0038 H         1 <0>         0.1598
     64 H28        -7.6778    8.6048    0.0008 H         1 <0>         0.2135
@<TRIPOS>BOND
     1    1    6 ar
     2    1    2 ar
     3    1   37 1
     4    2    3 ar
     5    2   38 1
     6    3    4 ar
     7    3   22 1
     8    4    5 ar
     9    4   39 1
    10    5    6 ar
    11    5    7 1
    12    6   40 1
    13    7   12 1
    14    7    8 1
    15    8    9 1
    16    8   41 1
    17    8   42 1
    18    9   10 1
    19    9   43 1
    20    9   44 1
    21   10   11 1
    22   10   13 am
    23   11   12 1
    24   11   45 1
    25   11   46 1
    26   12   47 1
    27   12   48 1
    28   13   14 2
    29   13   15 1
    30   15   16 1
    31   15   49 1
    32   15   50 1
    33   16   21 1
    34   16   17 1
    35   17   18 1
    36   17   51 1
    37   17   52 1
    38   18   19 1
    39   18   53 1
    40   18   54 1
    41   19   20 1
    42   20   21 1
    43   20   55 1
    44   20   56 1
    45   21   57 1
    46   21   58 1
    47   22   30 1
    48   22   23 2
    49   23   24 1
    50   23   59 1
    51   24   28 1
    52   24   25 2
    53   25   26 1
    54   26   27 2
    55   26   32 1
    56   27   28 1
    57   28   29 1
    58   29   30 2
    59   29   31 1
    60   31   60 1
    61   31   61 1
    62   32   36 1
    63   32   33 2
    64   33   34 1
    65   33   62 1
    66   34   35 2
    67   34   63 1
    68   35   36 1
    69   35   64 1
