@<TRIPOS>MOLECULE
CHEMBL469876
   52    57     0     0     0
SMALL
USER_CHARGES

@<TRIPOS>ATOM
      1 C1         -0.0173    1.4248    0.0099 C.3       1 <0>         0.0206
      2 O1          0.0021   -0.0041    0.0020 O.3       1 <0>        -0.3060
      3 C2         -1.2003   -0.6375    0.0101 C.ar      1 <0>         0.1611
      4 C3         -2.3748    0.1012    0.0195 C.ar      1 <0>        -0.1887
      5 C4         -3.5956   -0.5450    0.0272 C.ar      1 <0>        -0.0276
      6 C5         -3.6489   -1.9262    0.0255 C.ar      1 <0>        -0.1774
      7 C6         -2.4780   -2.6656    0.0162 C.ar      1 <0>        -0.0921
      8 C7         -1.2555   -2.0235    0.0032 C.ar      1 <0>        -0.1125
      9 C8         -2.8443   -4.1325    0.0173 C.3       1 <0>         0.0501
     10 N1         -4.2569   -4.1917    0.4565 N.4       1 <0>        -0.3833
     11 C9         -4.8157   -2.8879    0.0329 C.3       1 <0>         0.0461
     12 C10        -4.3370   -4.3369    1.9161 C.3       1 <0>        -0.0277
     13 C11        -5.7983   -4.5206    2.3308 C.3       1 <0>         0.1272
     14 N2         -5.8782   -4.6655    3.7865 N.pl3     1 <0>        -0.3739
     15 C12        -5.8080   -5.8379    4.4775 C.2       1 <0>         0.3752
     16 C13        -5.9277   -5.5084    5.8361 C.2       1 <0>        -0.2579
     17 C14        -6.0695   -4.1115    5.9169 C.2       1 <0>         0.1529
     18 N3         -6.0339   -3.6223    4.7077 N.2       1 <0>        -0.2677
     19 C15        -5.8845   -6.5966    6.8134 C.2       1 <0>         0.4007
     20 N4         -5.9629   -6.6602    8.1264 N.2       1 <0>        -0.5063
     21 C16        -5.8641   -7.9358    8.5217 C.2       1 <0>         0.3631
     22 N5         -5.7204   -8.7095    7.4622 N.2       1 <0>        -0.2939
     23 N6         -5.7295   -7.8731    6.3387 N.pl3     1 <0>        -0.3787
     24 C17        -5.6212   -8.0929    4.9962 C.2       1 <0>         0.7054
     25 N7         -5.6595   -7.1207    4.1185 N.2       1 <0>        -0.5791
     26 N8         -5.4665   -9.3838    4.5475 N.pl3     1 <0>        -0.7948
     27 C18        -5.9088   -8.4033    9.9230 C.2       1 <0>         0.0281
     28 C19        -5.8041   -9.6939   10.3371 C.2       1 <0>        -0.1277
     29 C20        -5.8977   -9.6780   11.7429 C.2       1 <0>        -0.2203
     30 C21        -6.0532   -8.3918   12.1136 C.2       1 <0>         0.0050
     31 O2         -6.0544   -7.6241   11.0120 O.3       1 <0>        -0.1522
     32 H1          1.0053    1.8021    0.0021 H         1 <0>         0.1128
     33 H2         -0.5445    1.7859   -0.8732 H         1 <0>         0.0643
     34 H3         -0.5275    1.7763    0.9067 H         1 <0>         0.0640
     35 H4         -2.3346    1.1804    0.0211 H         1 <0>         0.1477
     36 H5         -4.5098    0.0299    0.0348 H         1 <0>         0.1418
     37 H6         -0.3425   -2.6003   -0.0082 H         1 <0>         0.1461
     38 H7         -2.7443   -4.5463   -0.9861 H         1 <0>         0.1541
     39 H8         -2.2097   -4.6785    0.7154 H         1 <0>         0.1427
     40 H9         -5.5737   -2.5549    0.7419 H         1 <0>         0.1398
     41 H10        -5.2435   -2.9684   -0.9664 H         1 <0>         0.1497
     42 H11        -3.7590   -5.2072    2.2269 H         1 <0>         0.1387
     43 H12        -3.9336   -3.4436    2.3928 H         1 <0>         0.1409
     44 H13        -6.3763   -3.6504    2.0200 H         1 <0>         0.1202
     45 H14        -6.2017   -5.4140    1.8541 H         1 <0>         0.1193
     46 H15        -6.1842   -3.5400    6.8261 H         1 <0>         0.2092
     47 H16        -5.4361  -10.1173    5.1814 H         1 <0>         0.4312
     48 H17        -5.3877   -9.5606    3.5970 H         1 <0>         0.4312
     49 H18        -5.6747  -10.5635    9.7098 H         1 <0>         0.1610
     50 H19        -5.8535  -10.5345   12.3992 H         1 <0>         0.1623
     51 H20        -6.1558   -8.0370   13.1285 H         1 <0>         0.2172
     52 H21        -4.7389   -4.9496   -0.0032 H         1 <0>         0.4382
@<TRIPOS>BOND
     1    1    2 1
     2    1   32 1
     3    1   33 1
     4    1   34 1
     5    2    3 1
     6    3    8 ar
     7    3    4 ar
     8    4    5 ar
     9    4   35 1
    10    5    6 ar
    11    5   36 1
    12    6   11 1
    13    6    7 ar
    14    7    8 ar
    15    7    9 1
    16    8   37 1
    17    9   10 1
    18    9   38 1
    19    9   39 1
    20   10   11 1
    21   10   12 1
    22   10   52 1
    23   11   40 1
    24   11   41 1
    25   12   13 1
    26   12   42 1
    27   12   43 1
    28   13   14 1
    29   13   44 1
    30   13   45 1
    31   14   18 1
    32   14   15 1
    33   15   25 1
    34   15   16 2
    35   16   17 1
    36   16   19 1
    37   17   18 2
    38   17   46 1
    39   19   23 1
    40   19   20 2
    41   20   21 1
    42   21   22 2
    43   21   27 1
    44   22   23 1
    45   23   24 1
    46   24   25 2
    47   24   26 1
    48   26   47 1
    49   26   48 1
    50   27   31 1
    51   27   28 2
    52   28   29 1
    53   28   49 1
    54   29   30 2
    55   29   50 1
    56   30   31 1
    57   30   51 1
