@<TRIPOS>MOLECULE
CHEMBL1095172
   54    58     0     0     0
SMALL
USER_CHARGES

@<TRIPOS>ATOM
      1 C1         -0.0167    1.3793    0.0096 C.ar      1 <0>        -0.0900
      2 C2          1.1685    2.0928    0.0021 C.ar      1 <0>        -0.1328
      3 C3          2.3774    1.4278   -0.0129 C.ar      1 <0>        -0.0649
      4 C4          2.4029    0.0333   -0.0206 C.ar      1 <0>        -0.0854
      5 C5          1.2046   -0.6805   -0.0130 C.ar      1 <0>        -0.0594
      6 C6          0.0021   -0.0041    0.0020 C.ar      1 <0>        -0.1273
      7 C7          3.6972   -0.6867   -0.0373 C.ar      1 <0>         0.3449
      8 C8          3.8485   -1.9052    0.6418 C.ar      1 <0>        -0.3426
      9 C9          5.0990   -2.5520    0.5965 C.ar      1 <0>         0.2945
     10 N1          6.0850   -1.9873   -0.0846 N.ar      1 <0>        -0.5614
     11 C10         5.9021   -0.8317   -0.7150 C.ar      1 <0>         0.6029
     12 N2          4.7422   -0.1939   -0.7024 N.ar      1 <0>        -0.5654
     13 N3          6.9569   -0.2801   -1.4120 N.pl3     1 <0>        -0.8027
     14 C11         5.0073   -3.8086    1.3828 C.ar      1 <0>         0.0220
     15 C12         5.9358   -4.7988    1.6558 C.ar      1 <0>        -0.1345
     16 C13         5.5750   -5.8959    2.4403 C.ar      1 <0>         0.2292
     17 C14         4.2862   -5.9985    2.9488 C.ar      1 <0>        -0.1893
     18 C15         3.3534   -5.0149    2.6806 C.ar      1 <0>         0.0004
     19 C16         3.7034   -3.9174    1.9004 C.ar      1 <0>        -0.1911
     20 C17         2.9375   -2.7308    1.4534 C.2       1 <0>         0.4642
     21 O1          1.7751   -2.4843    1.7089 O.2       1 <0>        -0.4135
     22 N4          6.5081   -6.8890    2.7129 N.pl3     1 <0>        -0.7394
     23 C18         6.1322   -8.0414    3.5358 C.3       1 <0>         0.1007
     24 C19         7.3334   -8.9777    3.6812 C.3       1 <0>        -0.0211
     25 N5          6.9565  -10.1332    4.5063 N.4       1 <0>        -0.3817
     26 C20         6.6493   -9.6818    5.8705 C.3       1 <0>        -0.0511
     27 C21         6.2567  -10.8875    6.7280 C.3       1 <0>         0.0362
     28 O2          7.3230  -11.8407    6.7177 O.3       1 <0>        -0.3554
     29 C22         7.6754  -12.2933    5.4074 C.3       1 <0>         0.0357
     30 C23         8.0707  -11.0903    4.5474 C.3       1 <0>        -0.0426
     31 H1         -0.9604    1.9042    0.0260 H         1 <0>         0.1281
     32 H2          1.1475    3.1726    0.0077 H         1 <0>         0.1297
     33 H3          3.3020    1.9859   -0.0191 H         1 <0>         0.1296
     34 H4          1.2180   -1.7604   -0.0193 H         1 <0>         0.1341
     35 H5         -0.9264   -0.5557    0.0082 H         1 <0>         0.1295
     36 H6          7.8133   -0.7350   -1.4359 H         1 <0>         0.4196
     37 H7          6.8423    0.5627   -1.8783 H         1 <0>         0.4229
     38 H8          6.9385   -4.7227    1.2620 H         1 <0>         0.1402
     39 H9          4.0125   -6.8494    3.5551 H         1 <0>         0.1316
     40 H10         2.3523   -5.0978    3.0772 H         1 <0>         0.1435
     41 H11         7.4083   -6.8192    2.3584 H         1 <0>         0.4106
     42 H12         5.8184   -7.6972    4.5212 H         1 <0>         0.0845
     43 H13         5.3106   -8.5758    3.0588 H         1 <0>         0.0853
     44 H14         7.6473   -9.3219    2.6958 H         1 <0>         0.1412
     45 H15         8.1551   -8.4433    4.1581 H         1 <0>         0.1393
     46 H16         7.5275   -9.2003    6.3006 H         1 <0>         0.1420
     47 H17         5.8228   -8.9719    5.8411 H         1 <0>         0.1445
     48 H18         6.0701  -10.5611    7.7512 H         1 <0>         0.1438
     49 H19         5.3551  -11.3454    6.3212 H         1 <0>         0.0831
     50 H20         8.5157  -12.9843    5.4748 H         1 <0>         0.1439
     51 H21         6.8224  -12.7993    4.9554 H         1 <0>         0.0829
     52 H22         8.2994  -11.4258    3.5359 H         1 <0>         0.1447
     53 H23         8.9484  -10.6082    4.9780 H         1 <0>         0.1409
     54 H24         6.1439  -10.5799    4.1086 H         1 <0>         0.4256
@<TRIPOS>BOND
     1    1    6 ar
     2    1    2 ar
     3    1   31 1
     4    2    3 ar
     5    2   32 1
     6    3    4 ar
     7    3   33 1
     8    4    5 ar
     9    4    7 1
    10    5    6 ar
    11    5   34 1
    12    6   35 1
    13    7   12 ar
    14    7    8 ar
    15    8   20 1
    16    8    9 ar
    17    9   10 ar
    18    9   14 1
    19   10   11 ar
    20   11   12 ar
    21   11   13 1
    22   13   36 1
    23   13   37 1
    24   14   19 ar
    25   14   15 ar
    26   15   16 ar
    27   15   38 1
    28   16   17 ar
    29   16   22 1
    30   17   18 ar
    31   17   39 1
    32   18   19 ar
    33   18   40 1
    34   19   20 1
    35   20   21 2
    36   22   23 1
    37   22   41 1
    38   23   24 1
    39   23   42 1
    40   23   43 1
    41   24   25 1
    42   24   44 1
    43   24   45 1
    44   25   30 1
    45   25   26 1
    46   25   54 1
    47   26   27 1
    48   26   46 1
    49   26   47 1
    50   27   28 1
    51   27   48 1
    52   27   49 1
    53   28   29 1
    54   29   30 1
    55   29   50 1
    56   29   51 1
    57   30   52 1
    58   30   53 1
