@<TRIPOS>MOLECULE
CHEMBL475445
   43    46     0     0     0
SMALL
USER_CHARGES

@<TRIPOS>ATOM
      1 C1         -0.0173    1.4248    0.0099 C.3       1 <0>         0.0264
      2 O1          0.0021   -0.0041    0.0020 O.3       1 <0>        -0.3178
      3 C2         -1.2003   -0.6375    0.0101 C.ar      1 <0>         0.1275
      4 C3         -2.3746    0.1011    0.0195 C.ar      1 <0>        -0.2066
      5 C4         -3.5956   -0.5451    0.0272 C.ar      1 <0>        -0.0713
      6 C5         -3.6478   -1.9268    0.0260 C.ar      1 <0>        -0.1191
      7 C6         -2.4788   -2.6651    0.0172 C.ar      1 <0>        -0.0717
      8 C7         -1.2554   -2.0237    0.0032 C.ar      1 <0>        -0.1500
      9 C8         -4.9811   -2.6292    0.0350 C.3       1 <0>        -0.0619
     10 C9         -5.4428   -2.8652   -1.4045 C.3       1 <0>        -0.0995
     11 S1         -7.0477   -3.7107   -1.3937 S.3       1 <0>        -0.0212
     12 C10        -7.4373   -3.9075   -3.1008 C.2       1 <0>         0.1879
     13 C11        -8.6191   -4.5217   -3.4721 C.2       1 <0>        -0.2055
     14 C12        -8.8991   -4.6626   -4.8413 C.2       1 <0>         0.3632
     15 N1         -9.9092   -5.1863   -5.5197 N.2       1 <0>        -0.5233
     16 C13        -9.6793   -5.0618   -6.8317 C.2       1 <0>         0.3561
     17 N2         -8.5205   -4.4575   -7.0182 N.2       1 <0>        -0.3223
     18 N3         -7.9892   -4.1854   -5.7511 N.pl3     1 <0>        -0.3640
     19 C14        -6.8439   -3.5903   -5.3182 C.2       1 <0>         0.6639
     20 N4         -6.5906   -3.4568   -4.0354 N.2       1 <0>        -0.5613
     21 N5         -5.9392   -3.1163   -6.2385 N.pl3     1 <0>        -0.8057
     22 C15       -10.5819   -5.5286   -7.9051 C.2       1 <0>         0.0359
     23 C16       -11.7794   -6.1469   -7.7277 C.2       1 <0>        -0.1259
     24 C17       -12.2930   -6.4130   -9.0125 C.2       1 <0>        -0.2189
     25 C18       -11.3929   -5.9487   -9.9014 C.2       1 <0>        -0.0075
     26 O2        -10.3632   -5.4100   -9.2289 O.3       1 <0>        -0.1609
     27 H1          1.0053    1.8021    0.0021 H         1 <0>         0.1015
     28 H2         -0.5445    1.7859   -0.8732 H         1 <0>         0.0559
     29 H3         -0.5275    1.7763    0.9067 H         1 <0>         0.0565
     30 H4         -2.3343    1.1803    0.0211 H         1 <0>         0.1288
     31 H5         -4.5101    0.0294    0.0345 H         1 <0>         0.1261
     32 H6         -2.5223   -3.7443    0.0166 H         1 <0>         0.1309
     33 H7         -0.3427   -2.6008   -0.0082 H         1 <0>         0.1318
     34 H8         -4.8840   -3.5865    0.5470 H         1 <0>         0.0844
     35 H9         -5.7136   -2.0117    0.5548 H         1 <0>         0.0835
     36 H10        -5.5399   -1.9079   -1.9165 H         1 <0>         0.0961
     37 H11        -4.7104   -3.4827   -1.9243 H         1 <0>         0.0969
     38 H12        -9.3109   -4.8851   -2.7265 H         1 <0>         0.1697
     39 H13        -6.1196   -3.2072   -7.1872 H         1 <0>         0.4252
     40 H14        -5.1205   -2.6909   -5.9390 H         1 <0>         0.4293
     41 H15       -12.2467   -6.3879   -6.7844 H         1 <0>         0.1636
     42 H16       -13.2305   -6.8978   -9.2416 H         1 <0>         0.1599
     43 H17       -11.4863   -5.9977  -10.9762 H         1 <0>         0.2134
@<TRIPOS>BOND
     1    1    2 1
     2    1   27 1
     3    1   28 1
     4    1   29 1
     5    2    3 1
     6    3    8 ar
     7    3    4 ar
     8    4    5 ar
     9    4   30 1
    10    5    6 ar
    11    5   31 1
    12    6    7 ar
    13    6    9 1
    14    7    8 ar
    15    7   32 1
    16    8   33 1
    17    9   10 1
    18    9   34 1
    19    9   35 1
    20   10   11 1
    21   10   36 1
    22   10   37 1
    23   11   12 1
    24   12   20 1
    25   12   13 2
    26   13   14 1
    27   13   38 1
    28   14   18 1
    29   14   15 2
    30   15   16 1
    31   16   17 2
    32   16   22 1
    33   17   18 1
    34   18   19 1
    35   19   20 2
    36   19   21 1
    37   21   39 1
    38   21   40 1
    39   22   26 1
    40   22   23 2
    41   23   24 1
    42   23   41 1
    43   24   25 2
    44   24   42 1
    45   25   26 1
    46   25   43 1
