@<TRIPOS>MOLECULE
CHEMBL334873
   37    39     0     0     0
SMALL
USER_CHARGES

@<TRIPOS>ATOM
      1 C1         -0.0178    1.4608    0.0101 C.3       1 <0>         0.0699
      2 N1          0.0021   -0.0041    0.0020 N.pl3     1 <0>        -0.4107
      3 C2          0.0087   -0.8137   -1.0987 C.2       1 <0>         0.3317
      4 N2          0.0282   -2.0780   -0.7078 N.2       1 <0>        -0.4918
      5 C3          0.0349   -2.1413    0.6215 C.2       1 <0>         0.3266
      6 C4          0.0239   -0.8364    1.1081 C.2       1 <0>        -0.1518
      7 C5          0.0332   -0.6227    2.5003 C.2       1 <0>         0.5967
      8 O1          0.0209    0.5099    2.9495 O.2       1 <0>        -0.5096
      9 N3          0.0555   -1.6854    3.3309 N.am      1 <0>        -0.5488
     10 C6          0.0688   -2.9405    2.8502 C.2       1 <0>         0.7097
     11 O2          0.0888   -3.8735    3.6298 O.2       1 <0>        -0.5283
     12 N4          0.0530   -3.1910    1.5275 N.am      1 <0>        -0.5105
     13 C7          0.0699   -4.5740    1.0447 C.3       1 <0>         0.0894
     14 C8          0.0657   -1.4681    4.7797 C.3       1 <0>         0.2304
     15 C9         -1.3185   -1.4144    5.2776 C.1       1 <0>        -0.2162
     16 C10        -2.4225   -1.3716    5.6747 C.1       1 <0>        -0.1589
     17 C11        -0.0039   -0.3560   -2.4877 C.2       1 <0>        -0.1316
     18 C12         0.0044   -1.2550   -3.4947 C.2       1 <0>         0.0043
     19 C13        -0.0082   -0.7952   -4.8902 C.2       1 <0>        -0.1285
     20 C14        -0.0054   -1.7265   -5.9927 C.2       1 <0>        -0.1302
     21 C15        -0.0179   -1.1762   -7.2240 C.2       1 <0>        -0.2063
     22 S1         -0.0330    0.5709   -6.8855 S.3       1 <0>         0.1763
     23 C16        -0.0290    0.5452   -5.2079 C.2       1 <0>        -0.2305
     24 H1          1.0048    1.8381    0.0023 H         1 <0>         0.0883
     25 H2         -0.5450    1.8219   -0.8730 H         1 <0>         0.0953
     26 H3         -0.5280    1.8123    0.9069 H         1 <0>         0.1025
     27 H4          1.1017   -4.9030    0.9206 H         1 <0>         0.0739
     28 H5         -0.4321   -5.2173    1.7673 H         1 <0>         0.0937
     29 H6         -0.4472   -4.6308    0.0868 H         1 <0>         0.0921
     30 H7          0.5954   -2.2872    5.2662 H         1 <0>         0.1269
     31 H8          0.5687   -0.5271    5.0024 H         1 <0>         0.1253
     32 H9         -3.4098   -1.3334    6.0299 H         1 <0>         0.2226
     33 H10        -0.0197    0.7012   -2.7077 H         1 <0>         0.1380
     34 H11         0.0203   -2.3123   -3.2746 H         1 <0>         0.1387
     35 H12         0.0063   -2.7958   -5.8415 H         1 <0>         0.1468
     36 H13        -0.0185   -1.6745   -8.1821 H         1 <0>         0.1884
     37 H14        -0.0387    1.3871   -4.5315 H         1 <0>         0.1862
@<TRIPOS>BOND
     1    1    2 1
     2    1   24 1
     3    1   25 1
     4    1   26 1
     5    2    6 1
     6    2    3 1
     7    3    4 2
     8    3   17 1
     9    4    5 1
    10    5   12 1
    11    5    6 2
    12    6    7 1
    13    7    8 2
    14    7    9 am
    15    9   10 am
    16    9   14 1
    17   10   11 2
    18   10   12 am
    19   12   13 1
    20   13   27 1
    21   13   28 1
    22   13   29 1
    23   14   15 1
    24   14   30 1
    25   14   31 1
    26   15   16 3
    27   16   32 1
    28   17   18 2
    29   17   33 1
    30   18   19 1
    31   18   34 1
    32   19   23 2
    33   19   20 1
    34   20   21 2
    35   20   35 1
    36   21   22 1
    37   21   36 1
    38   22   23 1
    39   23   37 1
