@<TRIPOS>MOLECULE
CHEMBL270761
   54    57     0     0     0
SMALL
USER_CHARGES

@<TRIPOS>ATOM
      1 C1         -0.2211    1.6511   -0.8009 C.3       1 <0>        -0.0777
      2 C2         -0.0895    0.1676   -0.5711 C.2       1 <0>         0.0974
      3 C3         -0.2433   -0.8287   -1.5426 C.2       1 <0>        -0.2569
      4 C4         -0.0477   -2.0266   -0.9464 C.2       1 <0>         0.1126
      5 N1          0.2221   -1.7938    0.3653 N.pl3     1 <0>        -0.3208
      6 N2          0.1936   -0.4080    0.5686 N.2       1 <0>        -0.2570
      7 C5          0.4853   -2.7617    1.3348 C.ar      1 <0>         0.6090
      8 N3          0.5949   -2.3915    2.5987 N.ar      1 <0>        -0.5172
      9 C6          0.8457   -3.2887    3.5537 C.ar      1 <0>         0.3170
     10 C7          0.9917   -4.6311    3.1995 C.ar      1 <0>        -0.2356
     11 C8          0.8685   -4.9770    1.8562 C.ar      1 <0>         0.4388
     12 N4          0.6128   -4.0253    0.9638 N.ar      1 <0>        -0.5269
     13 N5          1.0059   -6.3015    1.4542 N.am      1 <0>        -0.6494
     14 C9          0.9902   -6.6128    0.1429 C.2       1 <0>         0.5063
     15 O1          0.7637   -5.7530   -0.6817 O.2       1 <0>        -0.4479
     16 C10         1.2542   -8.0293   -0.2984 C.3       1 <0>         0.0377
     17 N6          1.1813   -8.1074   -1.7635 N.3       1 <0>        -0.5226
     18 C11        -0.1855   -7.8481   -2.2374 C.3       1 <0>         0.0174
     19 C12        -0.2064   -7.8796   -3.7672 C.3       1 <0>        -0.0001
     20 N7          0.2518   -9.1940   -4.2363 N.4       1 <0>        -0.3893
     21 C13         1.6269   -9.4280   -3.7759 C.3       1 <0>        -0.0014
     22 C14         1.6630   -9.4094   -2.2462 C.3       1 <0>         0.0269
     23 C15         0.2145   -9.2299   -5.7044 C.3       1 <0>        -0.0459
     24 C16         0.9675   -2.8677    4.9655 C.2       1 <0>         0.1006
     25 N8          1.2164   -3.5989    6.0430 N.2       1 <0>        -0.4679
     26 C17         1.2912   -3.0559    7.2327 C.2       1 <0>         0.0179
     27 C18         1.1113   -1.7137    7.3780 C.2       1 <0>        -0.1848
     28 S1          0.8267   -1.2341    5.6786 S.3       1 <0>         0.1144
     29 C19        -0.1173   -3.3754   -1.6149 C.3       1 <0>        -0.0768
     30 H1          0.7493    2.0636   -1.0771 H         1 <0>         0.0844
     31 H2         -0.9350    1.8323   -1.6044 H         1 <0>         0.0841
     32 H3         -0.5730    2.1305    0.1126 H         1 <0>         0.0791
     33 H4         -0.4773   -0.6687   -2.5847 H         1 <0>         0.1598
     34 H5          1.1955   -5.3822    3.9482 H         1 <0>         0.1684
     35 H6          1.1130   -7.0011    2.1175 H         1 <0>         0.4283
     36 H7          2.2470   -8.3340    0.0328 H         1 <0>         0.1244
     37 H8          0.5065   -8.6913    0.1384 H         1 <0>         0.0829
     38 H9         -0.8567   -8.6140   -1.8487 H         1 <0>         0.0585
     39 H10        -0.5113   -6.8679   -1.8894 H         1 <0>         0.1396
     40 H11        -1.2221   -7.7016   -4.1205 H         1 <0>         0.1366
     41 H12         0.4544   -7.1046   -4.1556 H         1 <0>         0.1406
     42 H13         1.9703  -10.3980   -4.1356 H         1 <0>         0.1378
     43 H14         2.2783   -8.6451   -4.1643 H         1 <0>         0.1393
     44 H15         2.6858   -9.5682   -1.9046 H         1 <0>         0.1261
     45 H16         1.0223  -10.2010   -1.8576 H         1 <0>         0.0639
     46 H17         0.8673   -8.4537   -6.1036 H         1 <0>         0.1237
     47 H18         0.5545  -10.2052   -6.0527 H         1 <0>         0.1242
     48 H19        -0.8061   -9.0576   -6.0462 H         1 <0>         0.1246
     49 H20         1.4946   -3.6712    8.0966 H         1 <0>         0.1782
     50 H21         1.1377   -1.1069    8.2710 H         1 <0>         0.2079
     51 H22         0.8863   -3.6928   -1.8980 H         1 <0>         0.0837
     52 H23        -0.5468   -4.1014   -0.9246 H         1 <0>         0.0962
     53 H24        -0.7417   -3.3076   -2.5057 H         1 <0>         0.0683
     54 H25        -0.3531   -9.9122   -3.8672 H         1 <0>         0.4218
@<TRIPOS>BOND
     1    1    2 1
     2    1   30 1
     3    1   31 1
     4    1   32 1
     5    2    6 2
     6    2    3 1
     7    3    4 2
     8    3   33 1
     9    4    5 1
    10    4   29 1
    11    5    6 1
    12    5    7 1
    13    7   12 ar
    14    7    8 ar
    15    8    9 ar
    16    9   10 ar
    17    9   24 1
    18   10   11 ar
    19   10   34 1
    20   11   12 ar
    21   11   13 1
    22   13   14 am
    23   13   35 1
    24   14   15 2
    25   14   16 1
    26   16   17 1
    27   16   36 1
    28   16   37 1
    29   17   22 1
    30   17   18 1
    31   18   19 1
    32   18   38 1
    33   18   39 1
    34   19   20 1
    35   19   40 1
    36   19   41 1
    37   20   21 1
    38   20   23 1
    39   20   54 1
    40   21   22 1
    41   21   42 1
    42   21   43 1
    43   22   44 1
    44   22   45 1
    45   23   46 1
    46   23   47 1
    47   23   48 1
    48   24   28 1
    49   24   25 2
    50   25   26 1
    51   26   27 2
    52   26   49 1
    53   27   28 1
    54   27   50 1
    55   29   51 1
    56   29   52 1
    57   29   53 1
