@<TRIPOS>MOLECULE
CHEMBL429125
   67    70     0     0     0
SMALL
USER_CHARGES

@<TRIPOS>ATOM
      1 C1          8.3276   -1.9632   -0.0229 C.3       1 <0>        -0.0808
      2 C2          7.2456   -3.0122   -0.0325 C.2       1 <0>         0.0270
      3 C3          7.4442   -4.3460   -0.0478 C.2       1 <0>        -0.2261
      4 C4          6.1740   -4.9523   -0.0521 C.2       1 <0>        -0.1081
      5 C5          5.2590   -3.9452   -0.0390 C.2       1 <0>         0.0043
      6 O1          5.9255   -2.7740   -0.0213 O.3       1 <0>        -0.1508
      7 C6          3.7924   -4.1072   -0.0379 C.ar      1 <0>         0.4662
      8 N1          3.2761   -5.3312   -0.0451 N.ar      1 <0>        -0.5074
      9 C7          1.9604   -5.5132   -0.0444 C.ar      1 <0>         0.4360
     10 C8          1.1213   -4.4006   -0.0358 C.ar      1 <0>        -0.2597
     11 C9          1.6977   -3.1348   -0.0284 C.ar      1 <0>         0.4567
     12 N2          3.0215   -3.0261   -0.0242 N.ar      1 <0>        -0.5419
     13 N3          0.8947   -1.9926   -0.0198 N.pl3     1 <0>        -0.3354
     14 C10         1.2507   -0.7669    0.4467 C.2       1 <0>         0.1174
     15 C11         0.1939    0.0593    0.2742 C.2       1 <0>        -0.2586
     16 C12        -0.8398   -0.6788   -0.3144 C.2       1 <0>         0.1055
     17 N4         -0.4198   -1.9040   -0.4962 N.2       1 <0>        -0.2872
     18 C13        -2.2022   -0.1499   -0.6819 C.3       1 <0>        -0.0771
     19 C14         2.5818   -0.3957    1.0479 C.3       1 <0>        -0.0896
     20 N5          1.4270   -6.7978   -0.0524 N.am      1 <0>        -0.6490
     21 C15         2.2422   -7.8653   -0.1639 C.2       1 <0>         0.5050
     22 O2          3.4451   -7.7122   -0.1643 O.2       1 <0>        -0.4274
     23 C16         1.6587   -9.2492   -0.2879 C.3       1 <0>         0.0406
     24 O3          2.7164  -10.2045   -0.3918 O.3       1 <0>        -0.2682
     25 C17         2.3587  -11.5111   -0.5113 C.ar      1 <0>         0.1381
     26 C18         1.0192  -11.8651   -0.5340 C.ar      1 <0>        -0.1763
     27 C19         0.6573  -13.1937   -0.6561 C.ar      1 <0>        -0.0872
     28 C20         1.6294  -14.1718   -0.7552 C.ar      1 <0>        -0.1617
     29 C21         2.9675  -13.8255   -0.7327 C.ar      1 <0>        -0.1538
     30 C22         3.3370  -12.4951   -0.6169 C.ar      1 <0>         0.1160
     31 O4          4.6529  -12.1522   -0.6006 O.3       1 <0>        -0.2925
     32 C23         5.6017  -13.2148   -0.7133 C.3       1 <0>         0.0222
     33 C24         1.2293  -15.6187   -0.8876 C.3       1 <0>         0.0479
     34 N6          1.0885  -15.9597   -2.3095 N.4       1 <0>        -0.3869
     35 C25         0.8162  -17.3970   -2.4437 C.3       1 <0>        -0.0476
     36 C26        -0.0235  -15.1944   -2.8889 C.3       1 <0>        -0.0535
     37 H1          7.8730   -0.9726   -0.0058 H         1 <0>         0.0805
     38 H2          8.9509   -2.0922    0.8620 H         1 <0>         0.0926
     39 H3          8.9413   -2.0660   -0.9178 H         1 <0>         0.0923
     40 H4          8.3977   -4.8532   -0.0557 H         1 <0>         0.1577
     41 H5          5.9658   -6.0120   -0.0639 H         1 <0>         0.1652
     42 H6          0.0478   -4.5186   -0.0354 H         1 <0>         0.1627
     43 H7          0.1544    1.1044    0.5435 H         1 <0>         0.1610
     44 H8         -2.1808    0.2311   -1.7029 H         1 <0>         0.0845
     45 H9         -2.9355   -0.9532   -0.6092 H         1 <0>         0.0771
     46 H10        -2.4759    0.6547    0.0005 H         1 <0>         0.0855
     47 H11         3.2532   -0.0531    0.2605 H         1 <0>         0.0895
     48 H12         2.4411    0.4015    1.7778 H         1 <0>         0.0850
     49 H13         3.0138   -1.2670    1.5402 H         1 <0>         0.0780
     50 H14         0.4683   -6.9254    0.0222 H         1 <0>         0.4260
     51 H15         1.0554   -9.4695    0.5927 H         1 <0>         0.1044
     52 H16         1.0333   -9.3013   -1.1791 H         1 <0>         0.1040
     53 H17         0.2579  -11.1030   -0.4560 H         1 <0>         0.1482
     54 H18        -0.3871  -13.4682   -0.6736 H         1 <0>         0.1378
     55 H19         3.7249  -14.5916   -0.8100 H         1 <0>         0.1446
     56 H20         6.6113  -12.8049   -0.6869 H         1 <0>         0.1118
     57 H21         5.4697  -13.9092    0.1165 H         1 <0>         0.0595
     58 H22         5.4477  -13.7410   -1.6554 H         1 <0>         0.0565
     59 H23         1.9948  -16.2500   -0.4366 H         1 <0>         0.1359
     60 H24         0.2788  -15.7808   -0.3793 H         1 <0>         0.1371
     61 H25        -0.1066  -17.6426   -1.9181 H         1 <0>         0.1228
     62 H26         0.7118  -17.6500   -3.4988 H         1 <0>         0.1246
     63 H27         1.6414  -17.9648   -2.0138 H         1 <0>         0.1234
     64 H28         0.1785  -14.1279   -2.7893 H         1 <0>         0.1238
     65 H29        -0.1279  -15.4474   -3.9439 H         1 <0>         0.1238
     66 H30        -0.9463  -15.4400   -2.3633 H         1 <0>         0.1225
     67 H31         1.9428  -15.7323   -2.7960 H         1 <0>         0.4259
@<TRIPOS>BOND
     1    1    2 1
     2    1   37 1
     3    1   38 1
     4    1   39 1
     5    2    6 1
     6    2    3 2
     7    3    4 1
     8    3   40 1
     9    4    5 2
    10    4   41 1
    11    5    6 1
    12    5    7 1
    13    7   12 ar
    14    7    8 ar
    15    8    9 ar
    16    9   10 ar
    17    9   20 1
    18   10   11 ar
    19   10   42 1
    20   11   12 ar
    21   11   13 1
    22   13   17 1
    23   13   14 1
    24   14   15 2
    25   14   19 1
    26   15   16 1
    27   15   43 1
    28   16   17 2
    29   16   18 1
    30   18   44 1
    31   18   45 1
    32   18   46 1
    33   19   47 1
    34   19   48 1
    35   19   49 1
    36   20   21 am
    37   20   50 1
    38   21   22 2
    39   21   23 1
    40   23   24 1
    41   23   51 1
    42   23   52 1
    43   24   25 1
    44   25   30 ar
    45   25   26 ar
    46   26   27 ar
    47   26   53 1
    48   27   28 ar
    49   27   54 1
    50   28   29 ar
    51   28   33 1
    52   29   30 ar
    53   29   55 1
    54   30   31 1
    55   31   32 1
    56   32   56 1
    57   32   57 1
    58   32   58 1
    59   33   34 1
    60   33   59 1
    61   33   60 1
    62   34   35 1
    63   34   36 1
    64   34   67 1
    65   35   61 1
    66   35   62 1
    67   35   63 1
    68   36   64 1
    69   36   65 1
    70   36   66 1
