@<TRIPOS>MOLECULE
CHEMBL264433
   37    40     0     0     0
SMALL
USER_CHARGES

@<TRIPOS>ATOM
      1 C1         -0.0167    1.3781    0.0096 C.ar      1 <0>        -0.1090
      2 C2          1.1709    2.0855    0.0021 C.ar      1 <0>        -0.1221
      3 C3          2.3773    1.4107   -0.0130 C.ar      1 <0>        -0.0975
      4 C4          2.3960    0.0285   -0.0201 C.ar      1 <0>        -0.1140
      5 C5          1.2084   -0.6789   -0.0117 C.ar      1 <0>        -0.0975
      6 C6          0.0021   -0.0041    0.0020 C.ar      1 <0>        -0.1221
      7 C7          3.7112   -0.7071   -0.0376 C.3       1 <0>         0.1806
      8 N1          4.1518   -0.9524    1.3379 N.pl3     1 <0>        -0.6922
      9 C8          5.3442   -1.6192    1.5755 C.ar      1 <0>         0.5716
     10 N2          6.0563   -2.0123    0.5401 N.ar      1 <0>        -0.5269
     11 C9          7.2263   -2.6662    0.7000 C.ar      1 <0>         0.2205
     12 C10         8.1439   -3.1736   -0.3009 C.2       1 <0>        -0.1596
     13 C11         9.2660   -3.8015    0.0931 C.2       1 <0>        -0.1126
     14 S1          9.1681   -3.7549    1.8731 S.3       1 <0>         0.1247
     15 C12         7.6277   -2.8961    2.0403 C.ar      1 <0>        -0.2577
     16 C13         6.8487   -2.4667    3.1018 C.ar      1 <0>         0.2118
     17 N3          5.7100   -1.8227    2.8320 N.ar      1 <0>        -0.5141
     18 C14         7.2712   -2.7092    4.5012 C.2       1 <0>         0.4934
     19 O1          8.3147   -3.2925    4.7294 O.2       1 <0>        -0.4139
     20 C15         6.4344   -2.2477    5.6080 C.2       1 <0>        -0.2944
     21 C16         6.6476   -2.3668    6.9772 C.2       1 <0>        -0.0603
     22 C17         5.6737   -1.8284    7.7799 C.2       1 <0>        -0.1957
     23 C18         4.5978   -1.2324    7.2041 C.2       1 <0>        -0.2436
     24 S2          4.8787   -1.3788    5.5542 S.3       1 <0>         0.3061
     25 H1         -0.9591    1.9053    0.0259 H         1 <0>         0.1241
     26 H2          1.1563    3.1654    0.0076 H         1 <0>         0.1249
     27 H3          3.3051    1.9634   -0.0196 H         1 <0>         0.1241
     28 H4          1.2231   -1.7588   -0.0176 H         1 <0>         0.1241
     29 H5         -0.9258   -0.5567    0.0082 H         1 <0>         0.1249
     30 H6          3.5884   -1.6586   -0.5549 H         1 <0>         0.0773
     31 H7          4.4573   -0.1052   -0.5563 H         1 <0>         0.0774
     32 H8          3.6095   -0.6484    2.0824 H         1 <0>         0.4173
     33 H9          7.9286   -3.0491   -1.3518 H         1 <0>         0.1540
     34 H10        10.0421   -4.2317   -0.5224 H         1 <0>         0.2042
     35 H11         7.5232   -2.8521    7.3825 H         1 <0>         0.1484
     36 H12         5.7614   -1.8781    8.8552 H         1 <0>         0.1360
     37 H13         3.7560   -0.7668    7.6948 H         1 <0>         0.1877
@<TRIPOS>BOND
     1    1    6 ar
     2    1    2 ar
     3    1   25 1
     4    2    3 ar
     5    2   26 1
     6    3    4 ar
     7    3   27 1
     8    4    5 ar
     9    4    7 1
    10    5    6 ar
    11    5   28 1
    12    6   29 1
    13    7    8 1
    14    7   30 1
    15    7   31 1
    16    8    9 1
    17    8   32 1
    18    9   17 ar
    19    9   10 ar
    20   10   11 ar
    21   11   15 ar
    22   11   12 1
    23   12   13 2
    24   12   33 1
    25   13   14 1
    26   13   34 1
    27   14   15 1
    28   15   16 ar
    29   16   17 ar
    30   16   18 1
    31   18   19 2
    32   18   20 1
    33   20   24 1
    34   20   21 2
    35   21   22 1
    36   21   35 1
    37   22   23 2
    38   22   36 1
    39   23   24 1
    40   23   37 1
