@<TRIPOS>MOLECULE
CHEMBL81616
   45    47     0     0     0
SMALL
USER_CHARGES

@<TRIPOS>ATOM
      1 C1         -0.0184    1.5028    0.0103 C.3       1 <0>        -0.0830
      2 C2          0.0021   -0.0041    0.0020 C.2       1 <0>        -0.1349
      3 C3          0.0085   -0.7989   -1.0812 C.2       1 <0>         0.0679
      4 N1          0.0288   -2.1135   -0.6929 N.pl3     1 <0>        -0.5643
      5 C4          0.0360   -2.1982    0.6728 C.ar      1 <0>         0.3502
      6 N2          0.0544   -3.2075    1.5395 N.ar      1 <0>        -0.5600
      7 C5          0.0572   -2.9780    2.8427 C.ar      1 <0>         0.4240
      8 N3          0.0420   -1.7500    3.3516 N.ar      1 <0>        -0.5870
      9 C6          0.0232   -0.6833    2.5612 C.ar      1 <0>         0.4952
     10 C7          0.0251   -0.8811    1.1704 C.ar      1 <0>        -0.2574
     11 N4          0.0075    0.5929    3.0946 N.pl3     1 <0>        -0.7038
     12 C8          0.0116    0.7796    4.5477 C.3       1 <0>         0.1180
     13 C9         -0.0081    2.2751    4.8699 C.3       1 <0>         0.1042
     14 N5         -0.0040    2.4618    6.3229 N.am      1 <0>        -0.7283
     15 C10        -0.0193    3.7052    6.8427 C.2       1 <0>         0.5124
     16 O1         -0.0364    4.6696    6.1075 O.2       1 <0>        -0.5445
     17 C11        -0.0151    3.8972    8.3374 C.3       1 <0>        -0.1711
     18 C12         0.0774   -4.1342    3.7705 C.ar      1 <0>        -0.0421
     19 C13         0.0751   -3.9255    5.1488 C.ar      1 <0>        -0.0694
     20 C14         0.0941   -5.0056    6.0076 C.ar      1 <0>        -0.1325
     21 C15         0.1158   -6.2935    5.5031 C.ar      1 <0>        -0.1007
     22 C16         0.1183   -6.5067    4.1363 C.ar      1 <0>        -0.1320
     23 C17         0.0931   -5.4344    3.2679 C.ar      1 <0>        -0.0708
     24 C18        -0.0050   -0.3174   -2.5092 C.3       1 <0>        -0.0909
     25 H1          1.0042    1.8801    0.0026 H         1 <0>         0.0708
     26 H2         -0.5455    1.8639   -0.8728 H         1 <0>         0.0728
     27 H3         -0.5286    1.8543    0.9071 H         1 <0>         0.0588
     28 H4         -0.0062    1.3643    2.5066 H         1 <0>         0.4129
     29 H5         -0.8697    0.3036    4.9776 H         1 <0>         0.0766
     30 H6          0.9101    0.3289    4.9694 H         1 <0>         0.0766
     31 H7          0.8732    2.7511    4.4399 H         1 <0>         0.0746
     32 H8         -0.9066    2.7258    4.4482 H         1 <0>         0.0744
     33 H9          0.0097    1.6904    6.9109 H         1 <0>         0.4049
     34 H10         0.0011    2.9243    8.8286 H         1 <0>         0.0774
     35 H11         0.8683    4.4657    8.6282 H         1 <0>         0.0969
     36 H12        -0.9115    4.4404    8.6365 H         1 <0>         0.0969
     37 H13         0.0588   -2.9204    5.5438 H         1 <0>         0.1353
     38 H14         0.0923   -4.8451    7.0756 H         1 <0>         0.1267
     39 H15         0.1313   -7.1357    6.1789 H         1 <0>         0.1241
     40 H16         0.1356   -7.5143    3.7480 H         1 <0>         0.1264
     41 H17         0.0901   -5.6021    2.2010 H         1 <0>         0.1348
     42 H18         1.0193   -0.1865   -2.8582 H         1 <0>         0.0800
     43 H19        -0.5112   -1.0520   -3.1355 H         1 <0>         0.0708
     44 H20        -0.5328    0.6345   -2.5667 H         1 <0>         0.0878
     45 H21         0.0368   -2.8721   -1.2974 H         1 <0>         0.4213
@<TRIPOS>BOND
     1    1    2 1
     2    1   25 1
     3    1   26 1
     4    1   27 1
     5    2   10 1
     6    2    3 2
     7    3    4 1
     8    3   24 1
     9    4    5 1
    10    4   45 1
    11    5   10 ar
    12    5    6 ar
    13    6    7 ar
    14    7    8 ar
    15    7   18 1
    16    8    9 ar
    17    9   10 ar
    18    9   11 1
    19   11   12 1
    20   11   28 1
    21   12   13 1
    22   12   29 1
    23   12   30 1
    24   13   14 1
    25   13   31 1
    26   13   32 1
    27   14   15 am
    28   14   33 1
    29   15   16 2
    30   15   17 1
    31   17   34 1
    32   17   35 1
    33   17   36 1
    34   18   23 ar
    35   18   19 ar
    36   19   20 ar
    37   19   37 1
    38   20   21 ar
    39   20   38 1
    40   21   22 ar
    41   21   39 1
    42   22   23 ar
    43   22   40 1
    44   23   41 1
    45   24   42 1
    46   24   43 1
    47   24   44 1
