@<TRIPOS>MOLECULE
CHEMBL113542
   43    46     0     0     0
SMALL
USER_CHARGES

@<TRIPOS>ATOM
      1 C1          2.4883    1.5207    2.9975 C.3       1 <0>        -0.1471
      2 C2          2.5456    0.0116    2.7521 C.3       1 <0>        -0.1066
      3 C3          3.6071   -0.6136    3.6601 C.3       1 <0>        -0.1172
      4 C4          3.6881   -2.1182    3.3920 C.3       1 <0>        -0.1357
      5 C5          2.3363   -2.7635    3.7130 C.3       1 <0>         0.1032
      6 N1          1.2886   -2.0704    2.9511 N.am      1 <0>        -0.6012
      7 C6          1.1809   -0.6096    3.0659 C.3       1 <0>         0.1148
      8 C7          0.4427   -2.7614    2.1616 C.2       1 <0>         0.5773
      9 O1         -0.4787   -2.1902    1.6111 O.2       1 <0>        -0.5160
     10 C8          0.6348   -4.2120    1.9652 C.2       1 <0>        -0.0859
     11 C9          1.2787   -4.6909    0.7994 C.2       1 <0>        -0.1576
     12 C10         1.4494   -6.0336    0.6322 C.2       1 <0>         0.2547
     13 C11         0.9800   -6.9245    1.6268 C.2       1 <0>         0.2547
     14 N2          1.0077   -8.2462    1.7275 N.2       1 <0>        -0.5154
     15 C12         0.4284   -8.6221    2.8699 C.2       1 <0>         0.3269
     16 N3          0.0176   -7.5498    3.5247 N.2       1 <0>        -0.2943
     17 N4          0.3613   -6.4364    2.7437 N.pl3     1 <0>        -0.2493
     18 C13         0.1932   -5.1019    2.9183 C.2       1 <0>         0.0764
     19 C14         0.2707  -10.0174    3.3298 C.2       1 <0>         0.0761
     20 C15        -0.3217  -10.4135    4.4877 C.2       1 <0>        -0.1406
     21 C16        -0.2506  -11.8200    4.5197 C.2       1 <0>        -0.1554
     22 C17         0.3759  -12.2097    3.3904 C.2       1 <0>        -0.0100
     23 O2          0.6839  -11.1182    2.6717 O.3       1 <0>        -0.1375
     24 Br1         0.7515  -13.9964    2.8981 Br        1 <0>         0.0666
     25 N5          2.0823   -6.5259   -0.5121 N.pl3     1 <0>        -0.8451
     26 H1          2.2344    1.7099    4.0405 H         1 <0>         0.0581
     27 H2          3.4595    1.9623    2.7742 H         1 <0>         0.0605
     28 H3          1.7301    1.9652    2.3527 H         1 <0>         0.0592
     29 H4          2.8006   -0.1780    1.7095 H         1 <0>         0.0755
     30 H5          4.5749   -0.1557    3.4560 H         1 <0>         0.0687
     31 H6          3.3383   -0.4445    4.7028 H         1 <0>         0.0668
     32 H7          3.9326   -2.2882    2.3435 H         1 <0>         0.0692
     33 H8          4.4605   -2.5589    4.0223 H         1 <0>         0.0785
     34 H9          2.3577   -3.8161    3.4307 H         1 <0>         0.0843
     35 H10         2.1325   -2.6733    4.7800 H         1 <0>         0.0764
     36 H11         0.8828   -0.3437    4.0801 H         1 <0>         0.0733
     37 H12         0.4398   -0.2410    2.3566 H         1 <0>         0.0959
     38 H13         1.6314   -3.9992    0.0487 H         1 <0>         0.1536
     39 H14        -0.2944   -4.7349    3.8094 H         1 <0>         0.1774
     40 H15        -0.7619   -9.7734    5.2380 H         1 <0>         0.1704
     41 H16        -0.6262  -12.4644    5.3008 H         1 <0>         0.1709
     42 H17         2.4023   -5.9119   -1.1915 H         1 <0>         0.4116
     43 H18         2.2017   -7.4816   -0.6271 H         1 <0>         0.4140
@<TRIPOS>BOND
     1    1    2 1
     2    1   26 1
     3    1   27 1
     4    1   28 1
     5    2    7 1
     6    2    3 1
     7    2   29 1
     8    3    4 1
     9    3   30 1
    10    3   31 1
    11    4    5 1
    12    4   32 1
    13    4   33 1
    14    5    6 1
    15    5   34 1
    16    5   35 1
    17    6    7 1
    18    6    8 am
    19    7   36 1
    20    7   37 1
    21    8    9 2
    22    8   10 1
    23   10   18 2
    24   10   11 1
    25   11   12 2
    26   11   38 1
    27   12   13 1
    28   12   25 1
    29   13   17 1
    30   13   14 2
    31   14   15 1
    32   15   16 2
    33   15   19 1
    34   16   17 1
    35   17   18 1
    36   18   39 1
    37   19   23 1
    38   19   20 2
    39   20   21 1
    40   20   40 1
    41   21   22 2
    42   21   41 1
    43   22   23 1
    44   22   24 1
    45   25   42 1
    46   25   43 1
