@<TRIPOS>MOLECULE
CHEMBL258006
   35    38     0     0     0
SMALL
USER_CHARGES

@<TRIPOS>ATOM
      1 C1         -0.0167    1.3780    0.0096 C.ar      1 <0>        -0.1362
      2 C2          1.1706    2.0866    0.0021 C.ar      1 <0>        -0.0784
      3 C3          2.3773    1.4137   -0.0131 C.ar      1 <0>        -0.1626
      4 C4          2.3974    0.0291   -0.0207 C.ar      1 <0>         0.1237
      5 C5          1.2080   -0.6793   -0.0132 C.ar      1 <0>        -0.1593
      6 C6          0.0021   -0.0041    0.0020 C.ar      1 <0>        -0.0627
      7 C7          1.2281   -2.1862   -0.0220 C.3       1 <0>         0.1870
      8 N1          1.3684   -2.6807    1.3499 N.pl3     1 <0>        -0.3805
      9 C8          2.5447   -2.9302    1.9934 C.ar      1 <0>         0.3971
     10 C9          2.2071   -3.3877    3.2830 C.ar      1 <0>        -0.3212
     11 C10         0.7991   -3.3945    3.3638 C.2       1 <0>         0.1122
     12 N2          0.3178   -2.9731    2.2287 N.2       1 <0>        -0.2444
     13 C11         3.2536   -3.7229    4.1712 C.ar      1 <0>         0.3924
     14 N3          4.5102   -3.5908    3.7482 N.ar      1 <0>        -0.5742
     15 C12         4.7782   -3.1558    2.5243 C.ar      1 <0>         0.6165
     16 N4          3.8298   -2.8311    1.6612 N.ar      1 <0>        -0.5838
     17 N5          6.1013   -3.0365    2.1353 N.pl3     1 <0>        -0.8119
     18 C13         2.9627   -4.2058    5.5310 C.2       1 <0>        -0.1808
     19 C14         3.6468   -5.1385    6.2899 C.2       1 <0>        -0.0829
     20 C15         3.1289   -5.3873    7.5420 C.2       1 <0>        -0.1789
     21 C16         2.0175   -4.7233    7.9374 C.2       1 <0>        -0.2319
     22 S1          1.6418   -3.7354    6.6317 S.3       1 <0>         0.2188
     23 F1          3.5766   -0.6299   -0.0360 F         1 <0>        -0.1202
     24 H1         -0.9594    1.9048    0.0260 H         1 <0>         0.1329
     25 H2          1.1547    3.1665    0.0077 H         1 <0>         0.1345
     26 H3          3.3046    1.9675   -0.0193 H         1 <0>         0.1364
     27 H4         -0.9259   -0.5565    0.0083 H         1 <0>         0.1361
     28 H5          0.2975   -2.5595   -0.4494 H         1 <0>         0.1112
     29 H6          2.0689   -2.5348   -0.6216 H         1 <0>         0.1077
     30 H7          0.2179   -3.6939    4.2234 H         1 <0>         0.1947
     31 H8          6.8115   -3.2692    2.7536 H         1 <0>         0.4177
     32 H9          6.3182   -2.7201    1.2444 H         1 <0>         0.4173
     33 H10         4.5305   -5.6400    5.9239 H         1 <0>         0.1470
     34 H11         3.6026   -6.1021    8.1985 H         1 <0>         0.1375
     35 H12         1.4949   -4.8060    8.8789 H         1 <0>         0.1894
@<TRIPOS>BOND
     1    1    6 ar
     2    1    2 ar
     3    1   24 1
     4    2    3 ar
     5    2   25 1
     6    3    4 ar
     7    3   26 1
     8    4    5 ar
     9    4   23 1
    10    5    6 ar
    11    5    7 1
    12    6   27 1
    13    7    8 1
    14    7   28 1
    15    7   29 1
    16    8   12 1
    17    8    9 1
    18    9   16 ar
    19    9   10 ar
    20   10   11 1
    21   10   13 ar
    22   11   12 2
    23   11   30 1
    24   13   14 ar
    25   13   18 1
    26   14   15 ar
    27   15   16 ar
    28   15   17 1
    29   17   31 1
    30   17   32 1
    31   18   22 1
    32   18   19 2
    33   19   20 1
    34   19   33 1
    35   20   21 2
    36   20   34 1
    37   21   22 1
    38   21   35 1
