@<TRIPOS>MOLECULE
CHEMBL603174
   53    56     0     0     0
SMALL
USER_CHARGES

@<TRIPOS>ATOM
      1 C1         -0.0167    1.3781    0.0096 C.ar      1 <0>        -0.1094
      2 C2          1.1709    2.0855    0.0021 C.ar      1 <0>        -0.1221
      3 C3          2.3773    1.4107   -0.0130 C.ar      1 <0>        -0.0972
      4 C4          2.3960    0.0285   -0.0201 C.ar      1 <0>        -0.1123
      5 C5          1.2084   -0.6789   -0.0117 C.ar      1 <0>        -0.0971
      6 C6          0.0021   -0.0041    0.0020 C.ar      1 <0>        -0.1219
      7 C7          3.7112   -0.7071   -0.0376 C.3       1 <0>         0.1738
      8 N1          4.1518   -0.9524    1.3379 N.am      1 <0>        -0.7205
      9 C8          5.3108   -1.6005    1.5688 C.2       1 <0>         0.7353
     10 O1          5.9904   -1.9814    0.6358 O.2       1 <0>        -0.5577
     11 N2          5.7161   -1.8261    2.8342 N.am      1 <0>        -0.5529
     12 N3          4.9328   -1.3870    3.9095 N.2       1 <0>         0.1110
     13 N4          5.3208   -1.6030    5.1207 N.2       1 <0>        -0.2454
     14 C9          4.5555   -1.1740    6.1712 C.ar      1 <0>         0.5454
     15 N5          3.4127   -0.5412    5.9181 N.ar      1 <0>        -0.5866
     16 C10         2.6373   -0.1069    6.9030 C.ar      1 <0>         0.5203
     17 C11         3.0472   -0.3286    8.2307 C.ar      1 <0>        -0.0930
     18 C12         4.2621   -1.0015    8.4504 C.ar      1 <0>         0.3225
     19 N6          4.9752   -1.4077    7.4072 N.ar      1 <0>        -0.4971
     20 N7          4.4105   -1.0788    9.8128 N.pl3     1 <0>        -0.4667
     21 C13         3.3257   -0.4752   10.3765 C.2       1 <0>         0.2739
     22 N8          2.5278   -0.0360    9.4466 N.2       1 <0>        -0.4572
     23 C14         5.5290   -1.6965   10.5296 C.3       1 <0>         0.3115
     24 C15         6.6613   -0.6685   10.7476 C.3       1 <0>         0.0787
     25 H1          6.2645    0.3466   10.7285 H         1 <0>         0.0864
     26 C16         7.2118   -1.0083   12.1507 C.3       1 <0>         0.0474
     27 H2          7.0871   -0.1612   12.8253 H         1 <0>         0.0877
     28 C17         6.3469   -2.2013   12.6145 C.3       1 <0>         0.0505
     29 H3          6.8452   -3.1431   12.3848 H         1 <0>         0.1010
     30 O2          5.1212   -2.0839   11.8597 O.3       1 <0>        -0.3464
     31 C18         6.0631   -2.1021   14.1146 C.3       1 <0>         0.0821
     32 O3          5.3629   -3.2710   14.5453 O.3       1 <0>        -0.5635
     33 O4          8.5879   -1.3850   12.0710 O.3       1 <0>        -0.5383
     34 O5          7.6783   -0.8260    9.7561 O.3       1 <0>        -0.5248
     35 N9          1.4505    0.5508    6.6304 N.pl3     1 <0>        -0.8124
     36 H4         -0.9591    1.9053    0.0259 H         1 <0>         0.1234
     37 H5          1.1563    3.1654    0.0076 H         1 <0>         0.1244
     38 H6          3.3051    1.9634   -0.0196 H         1 <0>         0.1247
     39 H7          1.2231   -1.7588   -0.0176 H         1 <0>         0.1248
     40 H8         -0.9258   -0.5567    0.0082 H         1 <0>         0.1245
     41 H9          3.5884   -1.6586   -0.5549 H         1 <0>         0.0813
     42 H10         4.4573   -0.1052   -0.5563 H         1 <0>         0.0814
     43 H11         3.6095   -0.6484    2.0824 H         1 <0>         0.4125
     44 H12         6.5502   -2.2925    3.0004 H         1 <0>         0.4149
     45 H13         3.1538   -0.3760   11.4381 H         1 <0>         0.2277
     46 H14         5.9000   -2.5612    9.9794 H         1 <0>         0.1267
     47 H15         7.0045   -2.0217   14.6580 H         1 <0>         0.0673
     48 H16         5.4534   -1.2202   14.3115 H         1 <0>         0.0612
     49 H17         5.1494   -3.2765   15.4884 H         1 <0>         0.3870
     50 H18         8.9845   -1.6089   12.9241 H         1 <0>         0.3877
     51 H19         8.4144   -0.2053    9.8457 H         1 <0>         0.3914
     52 H20         1.1779    0.6984    5.7113 H         1 <0>         0.4126
     53 H21         0.8913    0.8640    7.3584 H         1 <0>         0.4213
@<TRIPOS>BOND
     1    1    6 ar
     2    1    2 ar
     3    1   36 1
     4    2    3 ar
     5    2   37 1
     6    3    4 ar
     7    3   38 1
     8    4    5 ar
     9    4    7 1
    10    5    6 ar
    11    5   39 1
    12    6   40 1
    13    7    8 1
    14    7   41 1
    15    7   42 1
    16    8    9 am
    17    8   43 1
    18    9   10 2
    19    9   11 am
    20   11   12 1
    21   11   44 1
    22   12   13 2
    23   13   14 1
    24   14   19 ar
    25   14   15 ar
    26   15   16 ar
    27   16   17 ar
    28   16   35 1
    29   17   22 1
    30   17   18 ar
    31   18   19 ar
    32   18   20 1
    33   20   21 1
    34   20   23 1
    35   21   22 2
    36   21   45 1
    37   23   30 1
    38   23   24 1
    39   23   46 1
    40   24   25 1
    41   24   26 1
    42   24   34 1
    43   26   27 1
    44   26   28 1
    45   26   33 1
    46   28   29 1
    47   28   30 1
    48   28   31 1
    49   31   32 1
    50   31   47 1
    51   31   48 1
    52   32   49 1
    53   33   50 1
    54   34   51 1
    55   35   52 1
    56   35   53 1
