@<TRIPOS>MOLECULE
CHEMBL296389
   50    53     0     0     0
SMALL
USER_CHARGES

@<TRIPOS>ATOM
      1 C1         -0.4009    1.4270    0.0567 C.3       1 <0>         0.0672
      2 N1         -0.1690   -0.0191    0.0228 N.pl3     1 <0>        -0.4615
      3 C2         -0.1942   -0.8226   -1.0904 C.ar      1 <0>         0.3096
      4 C3          0.0828   -2.1269   -0.6383 C.ar      1 <0>        -0.0968
      5 C4          0.1192   -3.1677   -1.5867 C.ar      1 <0>         0.5180
      6 N2         -0.1085   -2.8744   -2.8602 N.ar      1 <0>        -0.5724
      7 C5         -0.3665   -1.6269   -3.2430 C.ar      1 <0>         0.5012
      8 N3         -0.4104   -0.6180   -2.3831 N.ar      1 <0>        -0.5367
      9 C6         -0.6052   -1.3643   -4.6303 C.1       1 <0>        -0.1119
     10 C7         -0.8009   -1.1491   -5.7677 C.1       1 <0>        -0.0894
     11 C8         -1.0463   -0.8792   -7.1938 C.3       1 <0>         0.2502
     12 C9          0.1698   -1.2556   -7.9960 C.3       1 <0>        -0.1412
     13 C10         1.4654   -1.1990   -7.1642 C.3       1 <0>        -0.1146
     14 C11         1.5279    0.0309   -6.2384 C.3       1 <0>        -0.1444
     15 C12         1.0326    1.2829   -6.9102 C.3       1 <0>        -0.1164
     16 C13        -0.4616    1.4619   -6.5723 C.3       1 <0>        -0.1262
     17 C14        -1.3209    0.6250   -7.3966 C.3       1 <0>        -0.0983
     18 O1         -2.1730   -1.6371   -7.6388 O.3       1 <0>        -0.5438
     19 N4          0.3872   -4.4685   -1.1981 N.pl3     1 <0>        -0.8117
     20 N5          0.2599   -2.0625    0.6941 N.2       1 <0>        -0.4379
     21 C15         0.1198   -0.8227    1.0966 C.2       1 <0>         0.3092
     22 C16         0.2496   -0.3614    2.4955 C.ar      1 <0>         0.0052
     23 C17         0.1595   -1.2759    3.5461 C.ar      1 <0>        -0.0809
     24 C18         0.2811   -0.8405    4.8494 C.ar      1 <0>        -0.0862
     25 C19         0.4921    0.5002    5.1177 C.ar      1 <0>        -0.1364
     26 C20         0.5823    1.4141    4.0803 C.ar      1 <0>         0.1049
     27 C21         0.4682    0.9888    2.7702 C.ar      1 <0>        -0.1513
     28 F1          0.7880    2.7220    4.3495 F         1 <0>        -0.1331
     29 H1          0.5553    1.9492    0.0231 H         1 <0>         0.0852
     30 H2         -1.0045    1.7185   -0.8028 H         1 <0>         0.1003
     31 H3         -0.9260    1.6894    0.9752 H         1 <0>         0.0966
     32 H4          0.0404   -2.2679   -8.3788 H         1 <0>         0.0753
     33 H5          0.2619   -0.5709   -8.8391 H         1 <0>         0.0825
     34 H6          1.5320   -2.1009   -6.5556 H         1 <0>         0.0614
     35 H7          2.3180   -1.1718   -7.8429 H         1 <0>         0.0654
     36 H8          0.9177   -0.1608   -5.3558 H         1 <0>         0.0787
     37 H9          2.5604    0.1839   -5.9245 H         1 <0>         0.0570
     38 H10         1.5960    2.1417   -6.5451 H         1 <0>         0.0640
     39 H11         1.1558    1.1926   -7.9894 H         1 <0>         0.0669
     40 H12        -0.6197    1.2061   -5.5246 H         1 <0>         0.0686
     41 H13        -0.7352    2.5060   -6.7240 H         1 <0>         0.0703
     42 H14        -1.1572    0.8755   -8.4448 H         1 <0>         0.0798
     43 H15        -2.3612    0.8310   -7.1447 H         1 <0>         0.0772
     44 H16        -2.0654   -2.5935   -7.5453 H         1 <0>         0.3843
     45 H17         0.5525   -4.6715   -0.2641 H         1 <0>         0.4215
     46 H18         0.4098   -5.1775   -1.8598 H         1 <0>         0.4131
     47 H19        -0.0056   -2.3229    3.3390 H         1 <0>         0.1454
     48 H20         0.2110   -1.5479    5.6624 H         1 <0>         0.1443
     49 H21         0.5867    0.8357    6.1399 H         1 <0>         0.1428
     50 H22         0.5433    1.7006    1.9614 H         1 <0>         0.1446
@<TRIPOS>BOND
     1    1    2 1
     2    1   29 1
     3    1   30 1
     4    1   31 1
     5    2   21 1
     6    2    3 1
     7    3    8 ar
     8    3    4 ar
     9    4    5 ar
    10    4   20 1
    11    5    6 ar
    12    5   19 1
    13    6    7 ar
    14    7    8 ar
    15    7    9 1
    16    9   10 3
    17   10   11 1
    18   11   17 1
    19   11   12 1
    20   11   18 1
    21   12   13 1
    22   12   32 1
    23   12   33 1
    24   13   14 1
    25   13   34 1
    26   13   35 1
    27   14   15 1
    28   14   36 1
    29   14   37 1
    30   15   16 1
    31   15   38 1
    32   15   39 1
    33   16   17 1
    34   16   40 1
    35   16   41 1
    36   17   42 1
    37   17   43 1
    38   18   44 1
    39   19   45 1
    40   19   46 1
    41   20   21 2
    42   21   22 1
    43   22   27 ar
    44   22   23 ar
    45   23   24 ar
    46   23   47 1
    47   24   25 ar
    48   24   48 1
    49   25   26 ar
    50   25   49 1
    51   26   27 ar
    52   26   28 1
    53   27   50 1
