@<TRIPOS>MOLECULE
CHEMBL16929
   61    64     0     0     0
SMALL
USER_CHARGES

@<TRIPOS>ATOM
      1 C1         -0.0494    1.5193   -0.0575 C.3       1 <0>        -0.1471
      2 C2         -0.0246   -0.0105   -0.0587 C.3       1 <0>        -0.1385
      3 C3          0.7102   -0.5097    1.1870 C.3       1 <0>         0.1189
      4 N1          0.7339   -1.9745    1.1858 N.am      1 <0>        -0.5084
      5 C4          1.7827   -2.6493    0.5801 C.2       1 <0>         0.3302
      6 C5          1.7807   -4.0406    0.5933 C.2       1 <0>        -0.1467
      7 C6          0.7159   -4.7204    1.2201 C.2       1 <0>         0.5932
      8 O1          0.6922   -5.9382    1.2449 O.2       1 <0>        -0.5105
      9 N2         -0.2760   -4.0071    1.7923 N.am      1 <0>        -0.5483
     10 C7         -0.2599   -2.6632    1.7777 C.2       1 <0>         0.7077
     11 O2         -1.1685   -2.0539    2.3086 O.2       1 <0>        -0.5282
     12 C8         -1.3849   -4.7081    2.4445 C.3       1 <0>         0.1137
     13 C9         -1.0446   -4.9418    3.9177 C.3       1 <0>        -0.1379
     14 C10        -2.2026   -5.6738    4.5987 C.3       1 <0>        -0.1474
     15 N3          2.9254   -4.4403   -0.0707 N.pl3     1 <0>        -0.5161
     16 C11         3.5719   -3.3058   -0.4575 C.2       1 <0>         0.3486
     17 N4          2.8804   -2.2542   -0.0634 N.2       1 <0>        -0.4852
     18 H1          3.2128   -5.3529   -0.2301 H         1 <0>         0.4365
     19 C12         4.8474   -3.2602   -1.2008 C.ar      1 <0>        -0.0757
     20 C13         5.4862   -4.4466   -1.5688 C.ar      1 <0>        -0.0539
     21 C14         6.6759   -4.3998   -2.2621 C.ar      1 <0>        -0.1419
     22 C15         7.2405   -3.1747   -2.5947 C.ar      1 <0>         0.1536
     23 C16         6.6085   -1.9923   -2.2301 C.ar      1 <0>        -0.2114
     24 C17         5.4151   -2.0306   -1.5426 C.ar      1 <0>        -0.0186
     25 O3          8.4134   -3.1328   -3.2777 O.3       1 <0>        -0.2841
     26 C18         8.9380   -1.8401   -3.5873 C.3       1 <0>         0.0407
     27 C19        10.2340   -1.9914   -4.3413 C.2       1 <0>         0.5158
     28 O4         10.6659   -3.0974   -4.5891 O.2       1 <0>        -0.4910
     29 N5         10.9132   -0.8977   -4.7402 N.am      1 <0>        -0.6684
     30 C20        12.1638   -1.0357   -5.3547 C.ar      1 <0>         0.1301
     31 C21        13.1591   -0.0952   -5.1245 C.ar      1 <0>        -0.1116
     32 C22        14.3919   -0.2331   -5.7316 C.ar      1 <0>        -0.1347
     33 C23        14.6357   -1.3081   -6.5697 C.ar      1 <0>         0.0886
     34 C24        13.6445   -2.2471   -6.8006 C.ar      1 <0>        -0.1342
     35 C25        12.4123   -2.1162   -6.1906 C.ar      1 <0>        -0.0907
     36 F1         15.8420   -1.4407   -7.1633 F         1 <0>        -0.1374
     37 H2          0.9723    1.8992   -0.0617 H         1 <0>         0.0586
     38 H3         -0.5729    1.8749   -0.9450 H         1 <0>         0.0607
     39 H4         -0.5651    1.8736    0.8350 H         1 <0>         0.0590
     40 H5         -1.0463   -0.3904   -0.0545 H         1 <0>         0.0681
     41 H6          0.4911   -0.3649   -0.9512 H         1 <0>         0.0681
     42 H7          1.7319   -0.1298    1.1828 H         1 <0>         0.0986
     43 H8          0.1945   -0.1553    2.0795 H         1 <0>         0.1007
     44 H9         -2.2894   -4.1041    2.3719 H         1 <0>         0.1035
     45 H10        -1.5479   -5.6671    1.9527 H         1 <0>         0.1018
     46 H11        -0.1401   -5.5457    3.9903 H         1 <0>         0.0673
     47 H12        -0.8815   -3.9828    4.4095 H         1 <0>         0.0694
     48 H13        -3.1071   -5.0699    4.5262 H         1 <0>         0.0598
     49 H14        -2.3657   -6.6328    4.1070 H         1 <0>         0.0589
     50 H15        -1.9602   -5.8403    5.6483 H         1 <0>         0.0615
     51 H16         5.0483   -5.3993   -1.3100 H         1 <0>         0.1323
     52 H17         7.1704   -5.3166   -2.5470 H         1 <0>         0.1443
     53 H18         7.0509   -1.0420   -2.4900 H         1 <0>         0.1391
     54 H19         4.9218   -1.1111   -1.2641 H         1 <0>         0.1466
     55 H20         8.2216   -1.2949   -4.2019 H         1 <0>         0.1028
     56 H21         9.1171   -1.2899   -2.6636 H         1 <0>         0.1032
     57 H22        10.5356   -0.0150   -4.6017 H         1 <0>         0.4154
     58 H23        12.9691    0.7437   -4.4714 H         1 <0>         0.1382
     59 H24        15.1663    0.4982   -5.5528 H         1 <0>         0.1419
     60 H25        13.8365   -3.0846   -7.4550 H         1 <0>         0.1413
     61 H26        11.6410   -2.8512   -6.3674 H         1 <0>         0.1495
@<TRIPOS>BOND
     1    1    2 1
     2    1   37 1
     3    1   38 1
     4    1   39 1
     5    2    3 1
     6    2   40 1
     7    2   41 1
     8    3   42 1
     9    3   43 1
    10    3    4 1
    11    4    5 1
    12    4   10 am
    13    5   17 1
    14    5    6 2
    15    6    7 1
    16    6   15 1
    17    7    9 am
    18    7    8 2
    19    9   10 am
    20    9   12 1
    21   10   11 2
    22   12   13 1
    23   12   44 1
    24   12   45 1
    25   13   14 1
    26   13   46 1
    27   13   47 1
    28   14   48 1
    29   14   49 1
    30   14   50 1
    31   15   18 1
    32   15   16 1
    33   16   19 1
    34   16   17 2
    35   19   24 ar
    36   19   20 ar
    37   20   21 ar
    38   20   51 1
    39   21   22 ar
    40   21   52 1
    41   22   23 ar
    42   22   25 1
    43   23   24 ar
    44   23   53 1
    45   24   54 1
    46   25   26 1
    47   26   27 1
    48   26   55 1
    49   26   56 1
    50   27   28 2
    51   27   29 am
    52   29   30 1
    53   29   57 1
    54   30   35 ar
    55   30   31 ar
    56   31   32 ar
    57   31   58 1
    58   32   33 ar
    59   32   59 1
    60   33   34 ar
    61   33   36 1
    62   34   35 ar
    63   34   60 1
    64   35   61 1
