@<TRIPOS>MOLECULE
CHEMBL576153
   59    64     0     0     0
SMALL
USER_CHARGES

@<TRIPOS>ATOM
      1 C1         -0.0167    1.3781    0.0096 C.ar      1 <0>        -0.1263
      2 C2          1.1709    2.0855    0.0021 C.ar      1 <0>        -0.1183
      3 C3          2.3773    1.4107   -0.0130 C.ar      1 <0>        -0.1144
      4 C4          2.3960    0.0285   -0.0201 C.ar      1 <0>        -0.0796
      5 C5          1.2084   -0.6789   -0.0117 C.ar      1 <0>        -0.1174
      6 C6          0.0021   -0.0041    0.0020 C.ar      1 <0>        -0.1200
      7 C7          3.7112   -0.7071   -0.0376 C.3       1 <0>        -0.0776
      8 C8          4.1714   -0.9633    1.3989 C.3       1 <0>        -0.1275
      9 C9          5.5066   -1.7102    1.3812 C.3       1 <0>         0.1377
     10 N1          5.9472   -1.9554    2.7567 N.pl3     1 <0>        -0.3578
     11 C10         6.2620   -3.1598    3.2651 C.2       1 <0>         0.1357
     12 C11         6.6257   -2.9803    4.5744 C.2       1 <0>        -0.2774
     13 C12         6.5119   -1.5394    4.8533 C.2       1 <0>         0.3209
     14 N2          6.1097   -0.9706    3.7381 N.2       1 <0>        -0.2951
     15 N3          6.8197   -1.0944    6.0976 N.2       1 <0>        -0.4881
     16 C13         7.2112   -1.9081    7.0456 C.2       1 <0>         0.6213
     17 N4          7.3463   -3.2644    6.8764 N.pl3     1 <0>        -0.3296
     18 C14         7.0692   -3.8506    5.6708 C.2       1 <0>         0.3800
     19 N5          7.2797   -5.1425    5.7883 N.2       1 <0>        -0.5321
     20 C15         7.6866   -5.4209    7.0343 C.2       1 <0>         0.2823
     21 N6          7.7420   -4.3032    7.7318 N.2       1 <0>        -0.2458
     22 C16         8.0208   -6.7667    7.5453 C.2       1 <0>         0.0775
     23 C17         8.4292   -7.0619    8.8080 C.2       1 <0>        -0.1590
     24 C18         8.6341   -8.4552    8.8529 C.2       1 <0>        -0.2149
     25 C19         8.3437   -8.9367    7.6283 C.2       1 <0>        -0.0311
     26 O1          7.9679   -7.9147    6.8426 O.3       1 <0>        -0.1575
     27 N7          7.5002   -1.3816    8.2642 N.2       1 <0>        -0.6187
     28 C20         7.3845   -0.0978    8.4641 C.2       1 <0>         0.4267
     29 O2          6.9789    0.7051    7.4633 O.3       1 <0>        -0.6169
     30 C21         7.7051    0.4862    9.8159 C.3       1 <0>         0.0964
     31 O3          8.1099   -0.5589   10.7024 O.3       1 <0>        -0.2729
     32 C22         8.4367   -0.1992   11.9718 C.ar      1 <0>         0.1480
     33 C23         8.3636    1.1313   12.3573 C.ar      1 <0>        -0.2069
     34 C24         8.6961    1.4949   13.6479 C.ar      1 <0>        -0.0683
     35 C25         9.1025    0.5330   14.5556 C.ar      1 <0>        -0.0851
     36 C26         9.1765   -0.7946   14.1729 C.ar      1 <0>        -0.0707
     37 C27         8.8384   -1.1630   12.8851 C.ar      1 <0>        -0.1420
     38 Cl1         9.5204    0.9924   16.1767 Cl        1 <0>        -0.0846
     39 H1         -0.9591    1.9053    0.0259 H         1 <0>         0.1194
     40 H2          1.1563    3.1654    0.0076 H         1 <0>         0.1211
     41 H3          3.3051    1.9634   -0.0196 H         1 <0>         0.1229
     42 H4          1.2231   -1.7588   -0.0176 H         1 <0>         0.1207
     43 H5         -0.9258   -0.5567    0.0082 H         1 <0>         0.1201
     44 H6          3.5884   -1.6586   -0.5549 H         1 <0>         0.0746
     45 H7          4.4573   -0.1052   -0.5563 H         1 <0>         0.0768
     46 H8          4.2941   -0.0118    1.9163 H         1 <0>         0.0851
     47 H9          3.4252   -1.5652    1.9176 H         1 <0>         0.0707
     48 H10         5.3838   -2.6617    0.8639 H         1 <0>         0.0969
     49 H11         6.2527   -1.1082    0.8625 H         1 <0>         0.0877
     50 H12         6.2332   -4.1009    2.7361 H         1 <0>         0.1840
     51 H13         8.5700   -6.3634    9.6195 H         1 <0>         0.1597
     52 H14         8.9623   -9.0288    9.7072 H         1 <0>         0.1530
     53 H15         8.3994   -9.9731    7.3297 H         1 <0>         0.2064
     54 H16         8.5129    1.2113    9.7161 H         1 <0>         0.0812
     55 H17         6.8205    0.9807   10.2171 H         1 <0>         0.0811
     56 H18         8.0471    1.8826   11.6488 H         1 <0>         0.1379
     57 H19         8.6393    2.5307   13.9483 H         1 <0>         0.1314
     58 H20         9.4942   -1.5440   14.8828 H         1 <0>         0.1358
     59 H21         8.8917   -2.2000   12.5881 H         1 <0>         0.1425
@<TRIPOS>BOND
     1    1    6 ar
     2    1    2 ar
     3    1   39 1
     4    2    3 ar
     5    2   40 1
     6    3    4 ar
     7    3   41 1
     8    4    5 ar
     9    4    7 1
    10    5    6 ar
    11    5   42 1
    12    6   43 1
    13    7    8 1
    14    7   44 1
    15    7   45 1
    16    8    9 1
    17    8   46 1
    18    8   47 1
    19    9   10 1
    20    9   48 1
    21    9   49 1
    22   10   14 1
    23   10   11 1
    24   11   12 2
    25   11   50 1
    26   12   18 1
    27   12   13 1
    28   13   14 2
    29   13   15 1
    30   15   16 2
    31   16   17 1
    32   16   27 1
    33   17   21 1
    34   17   18 1
    35   18   19 2
    36   19   20 1
    37   20   21 2
    38   20   22 1
    39   22   26 1
    40   22   23 2
    41   23   24 1
    42   23   51 1
    43   24   25 2
    44   24   52 1
    45   25   26 1
    46   25   53 1
    47   27   28 2
    48   28   29 1
    49   28   30 1
    50   30   31 1
    51   30   54 1
    52   30   55 1
    53   31   32 1
    54   32   37 ar
    55   32   33 ar
    56   33   34 ar
    57   33   56 1
    58   34   35 ar
    59   34   57 1
    60   35   36 ar
    61   35   38 1
    62   36   37 ar
    63   36   58 1
    64   37   59 1
