@<TRIPOS>MOLECULE
CHEMBL472460
   56    59     0     0     0
SMALL
USER_CHARGES

@<TRIPOS>ATOM
      1 C1          0.1520    1.7034   -0.8810 C.3       1 <0>        -0.0743
      2 C2          0.1360    0.2140   -0.6518 C.2       1 <0>         0.0931
      3 C3          0.0089   -0.7661   -1.6434 C.2       1 <0>        -0.2634
      4 C4          0.0390   -1.9762   -1.0404 C.2       1 <0>         0.1211
      5 N1          0.1811   -1.7666    0.2951 N.pl3     1 <0>        -0.3204
      6 N2          0.2442   -0.3831    0.5067 N.2       1 <0>        -0.2608
      7 C5          0.2559   -2.7529    1.2786 C.ar      1 <0>         0.6034
      8 N3          0.2327   -2.3948    2.5509 N.ar      1 <0>        -0.5224
      9 C6          0.3018   -3.3085    3.5183 C.ar      1 <0>         0.2696
     10 C7          0.3993   -4.6550    3.1714 C.ar      1 <0>        -0.2719
     11 C8          0.4206   -4.9897    1.8194 C.ar      1 <0>         0.4414
     12 N4          0.3427   -4.0212    0.9123 N.ar      1 <0>        -0.5312
     13 N5          0.5173   -6.3196    1.4240 N.am      1 <0>        -0.6546
     14 C9          0.6494   -6.6265    0.1183 C.2       1 <0>         0.5014
     15 O1          0.5902   -5.7516   -0.7193 O.2       1 <0>        -0.4666
     16 C10         0.8707   -8.0571   -0.3008 C.3       1 <0>        -0.1708
     17 C11         0.2757   -2.8987    4.9437 C.ar      1 <0>         0.0068
     18 C12         0.0683   -1.5635    5.2828 C.ar      1 <0>        -0.1073
     19 C13         0.0448   -1.1858    6.6153 C.ar      1 <0>         0.1573
     20 C14         0.2276   -2.1361    7.6101 C.ar      1 <0>        -0.2270
     21 C15         0.4338   -3.4633    7.2750 C.ar      1 <0>         0.1394
     22 C16         0.4528   -3.8492    5.9471 C.ar      1 <0>        -0.1618
     23 F1          0.6116   -4.3843    8.2473 F         1 <0>        -0.1299
     24 O2         -0.1569    0.1162    6.9486 O.3       1 <0>        -0.2942
     25 C17        -0.0457    0.4564    8.3321 C.3       1 <0>         0.0765
     26 C18         0.1909    1.9743    8.5049 C.3       1 <0>        -0.1255
     27 C19        -0.6563    2.3770    9.7261 C.3       1 <0>         0.0348
     28 N6         -1.3061    1.1468   10.2280 N.3       1 <0>        -0.5184
     29 C20        -1.3934    0.2305    9.0623 C.3       1 <0>         0.0091
     30 C21        -2.6403    1.4393   10.7688 C.3       1 <0>         0.0144
     31 C22        -0.0665   -3.3146   -1.7249 C.3       1 <0>        -0.0904
     32 H1          1.1774    2.0346   -1.0455 H         1 <0>         0.0820
     33 H2         -0.4520    1.9428   -1.7561 H         1 <0>         0.0824
     34 H3         -0.2576    2.2099   -0.0071 H         1 <0>         0.0768
     35 H4         -0.0954   -0.5873   -2.7034 H         1 <0>         0.1590
     36 H5          0.4573   -5.4197    3.9318 H         1 <0>         0.1591
     37 H6          0.4896   -7.0262    2.0879 H         1 <0>         0.4258
     38 H7         -0.0920   -8.5384   -0.4726 H         1 <0>         0.1007
     39 H8          1.4574   -8.0800   -1.2192 H         1 <0>         0.1019
     40 H9          1.4069   -8.5874    0.4862 H         1 <0>         0.0847
     41 H10        -0.0735   -0.8243    4.5083 H         1 <0>         0.1554
     42 H11         0.2093   -1.8393    8.6484 H         1 <0>         0.1485
     43 H12         0.6094   -4.8858    5.6879 H         1 <0>         0.1447
     44 H13         0.7507   -0.1173    8.8061 H         1 <0>         0.0938
     45 H14         1.2458    2.1737    8.6939 H         1 <0>         0.0872
     46 H15        -0.1437    2.5127    7.6182 H         1 <0>         0.0871
     47 H16        -0.0153    2.8003   10.4994 H         1 <0>         0.0880
     48 H17        -1.4137    3.1026    9.4296 H         1 <0>         0.0536
     49 H18        -2.2299    0.5045    8.4194 H         1 <0>         0.0615
     50 H19        -1.4834   -0.8044    9.3923 H         1 <0>         0.0895
     51 H20        -3.2646    1.8670    9.9843 H         1 <0>         0.0318
     52 H21        -3.0947    0.5178   11.1329 H         1 <0>         0.0723
     53 H22        -2.5515    2.1500   11.5905 H         1 <0>         0.0740
     54 H23         0.9275   -3.6517   -2.0188 H         1 <0>         0.0837
     55 H24        -0.5082   -4.0389   -1.0405 H         1 <0>         0.1075
     56 H25        -0.6951   -3.2212   -2.6105 H         1 <0>         0.0717
@<TRIPOS>BOND
     1    1    2 1
     2    1   32 1
     3    1   33 1
     4    1   34 1
     5    2    6 2
     6    2    3 1
     7    3    4 2
     8    3   35 1
     9    4    5 1
    10    4   31 1
    11    5    6 1
    12    5    7 1
    13    7   12 ar
    14    7    8 ar
    15    8    9 ar
    16    9   10 ar
    17    9   17 1
    18   10   11 ar
    19   10   36 1
    20   11   12 ar
    21   11   13 1
    22   13   14 am
    23   13   37 1
    24   14   15 2
    25   14   16 1
    26   16   38 1
    27   16   39 1
    28   16   40 1
    29   17   22 ar
    30   17   18 ar
    31   18   19 ar
    32   18   41 1
    33   19   20 ar
    34   19   24 1
    35   20   21 ar
    36   20   42 1
    37   21   22 ar
    38   21   23 1
    39   22   43 1
    40   24   25 1
    41   25   29 1
    42   25   26 1
    43   25   44 1
    44   26   27 1
    45   26   45 1
    46   26   46 1
    47   27   28 1
    48   27   47 1
    49   27   48 1
    50   28   29 1
    51   28   30 1
    52   29   49 1
    53   29   50 1
    54   30   51 1
    55   30   52 1
    56   30   53 1
    57   31   54 1
    58   31   55 1
    59   31   56 1
