@<TRIPOS>MOLECULE
CHEMBL480556
   65    69     0     0     0
SMALL
USER_CHARGES

@<TRIPOS>ATOM
      1 C1         -0.2152    1.3153   -2.6556 C.3       1 <0>         0.0297
      2 O1         -0.6733   -0.0298   -2.5041 O.3       1 <0>        -0.3864
      3 C2         -1.4605   -0.2472   -1.3315 C.3       1 <0>         0.0599
      4 C3         -1.8937   -1.7134   -1.2726 C.3       1 <0>         0.0620
      5 O2         -0.7420   -2.5444   -1.1142 O.3       1 <0>        -0.3053
      6 C4         -0.9537   -3.8860   -1.0438 C.ar      1 <0>         0.1016
      7 C5         -2.2430   -4.3899   -1.1314 C.ar      1 <0>        -0.1640
      8 C6         -2.4588   -5.7521   -1.0600 C.ar      1 <0>        -0.1426
      9 C7         -1.3845   -6.6174   -0.9005 C.ar      1 <0>         0.1576
     10 C8         -0.0941   -6.1122   -0.8129 C.ar      1 <0>        -0.1425
     11 C9          0.1204   -4.7500   -0.8901 C.ar      1 <0>        -0.1041
     12 N1         -1.6024   -7.9979   -0.8276 N.pl3     1 <0>        -0.6449
     13 C10        -0.4737   -8.9401   -0.7772 C.3       1 <0>         0.1008
     14 C11        -0.6953   -9.9011    0.3954 C.3       1 <0>        -0.0224
     15 N2         -2.0115  -10.5385    0.2626 N.4       1 <0>        -0.3844
     16 C12        -3.0704   -9.5275    0.3749 C.3       1 <0>        -0.0289
     17 C13        -2.9664   -8.5476   -0.7930 C.3       1 <0>         0.1031
     18 C14        -2.1781  -11.5396    1.3247 C.3       1 <0>        -0.0034
     19 C15        -3.4941  -12.2914    1.1149 C.3       1 <0>         0.0351
     20 O3         -3.4273  -13.0383   -0.1015 O.3       1 <0>        -0.3019
     21 C16        -4.5207  -13.7665   -0.4376 C.2       1 <0>         0.3871
     22 C17        -4.5187  -14.5142   -1.5964 C.2       1 <0>        -0.2419
     23 C18        -5.6680  -15.2585   -1.9161 C.2       1 <0>         0.3697
     24 N3         -5.9898  -16.0584   -2.9210 N.2       1 <0>        -0.5157
     25 C19        -7.2311  -16.5240   -2.7428 C.2       1 <0>         0.3701
     26 N4         -7.7266  -16.0319   -1.6222 N.2       1 <0>        -0.3142
     27 N5         -6.7409  -15.2092   -1.0628 N.pl3     1 <0>        -0.3722
     28 C20        -6.6760  -14.4502    0.0651 C.2       1 <0>         0.6925
     29 N6         -5.5950  -13.7614    0.3585 N.2       1 <0>        -0.6119
     30 N7         -7.7563  -14.4071    0.9141 N.pl3     1 <0>        -0.7954
     31 C21        -7.9378  -17.4449   -3.6577 C.2       1 <0>         0.0212
     32 C22        -7.4382  -17.9628   -4.8110 C.2       1 <0>        -0.1166
     33 C23        -8.4450  -18.7834   -5.3570 C.2       1 <0>        -0.2201
     34 C24        -9.4985  -18.7264   -4.5187 C.2       1 <0>         0.0028
     35 O4         -9.1867  -17.9212   -3.4906 O.3       1 <0>        -0.1602
     36 H1         -1.0721    1.9864   -2.7144 H         1 <0>         0.0439
     37 H2          0.4015    1.5877   -1.7991 H         1 <0>         0.0445
     38 H3          0.3743    1.3977   -3.5687 H         1 <0>         0.0901
     39 H4         -0.8696   -0.0072   -0.4475 H         1 <0>         0.0629
     40 H5         -2.3432    0.3915   -1.3629 H         1 <0>         0.0743
     41 H6         -2.5664   -1.8599   -0.4276 H         1 <0>         0.0780
     42 H7         -2.4081   -1.9776   -2.1965 H         1 <0>         0.0724
     43 H8         -3.0784   -3.7167   -1.2551 H         1 <0>         0.1325
     44 H9         -3.4628   -6.1442   -1.1279 H         1 <0>         0.1251
     45 H10         0.7420   -6.7845   -0.6888 H         1 <0>         0.1301
     46 H11         1.1245   -4.3572   -0.8268 H         1 <0>         0.1372
     47 H12        -0.4254   -9.5039   -1.7088 H         1 <0>         0.0882
     48 H13         0.4559   -8.3905   -0.6297 H         1 <0>         0.1273
     49 H14         0.0811  -10.6661    0.3901 H         1 <0>         0.1425
     50 H15        -0.6530   -9.3466    1.3328 H         1 <0>         0.1340
     51 H16        -4.0440  -10.0171    0.3545 H         1 <0>         0.1378
     52 H17        -2.9562   -8.9842    1.3130 H         1 <0>         0.1352
     53 H18        -3.6840   -7.7386   -0.6559 H         1 <0>         0.1248
     54 H19        -3.1741   -9.0711   -1.7262 H         1 <0>         0.0864
     55 H20        -1.3477  -12.2449    1.2927 H         1 <0>         0.1457
     56 H21        -2.1947  -11.0416    2.2941 H         1 <0>         0.1520
     57 H22        -3.6611  -12.9716    1.9502 H         1 <0>         0.1183
     58 H23        -4.3155  -11.5772    1.0581 H         1 <0>         0.0949
     59 H24        -3.6543  -14.5275   -2.2436 H         1 <0>         0.1722
     60 H25        -8.5563  -14.9151    0.7072 H         1 <0>         0.4316
     61 H26        -7.7186  -13.8688    1.7201 H         1 <0>         0.4314
     62 H27        -6.4590  -17.7803   -5.2283 H         1 <0>         0.1642
     63 H28        -8.3842  -19.3504   -6.2742 H         1 <0>         0.1625
     64 H29       -10.4366  -19.2452   -4.6501 H         1 <0>         0.2165
     65 H30        -2.0750  -10.9919   -0.6365 H         1 <0>         0.4293
@<TRIPOS>BOND
     1    1    2 1
     2    1   36 1
     3    1   37 1
     4    1   38 1
     5    2    3 1
     6    3    4 1
     7    3   39 1
     8    3   40 1
     9    4    5 1
    10    4   41 1
    11    4   42 1
    12    5    6 1
    13    6   11 ar
    14    6    7 ar
    15    7    8 ar
    16    7   43 1
    17    8    9 ar
    18    8   44 1
    19    9   10 ar
    20    9   12 1
    21   10   11 ar
    22   10   45 1
    23   11   46 1
    24   12   17 1
    25   12   13 1
    26   13   14 1
    27   13   47 1
    28   13   48 1
    29   14   15 1
    30   14   49 1
    31   14   50 1
    32   15   16 1
    33   15   18 1
    34   15   65 1
    35   16   17 1
    36   16   51 1
    37   16   52 1
    38   17   53 1
    39   17   54 1
    40   18   19 1
    41   18   55 1
    42   18   56 1
    43   19   20 1
    44   19   57 1
    45   19   58 1
    46   20   21 1
    47   21   29 1
    48   21   22 2
    49   22   23 1
    50   22   59 1
    51   23   27 1
    52   23   24 2
    53   24   25 1
    54   25   26 2
    55   25   31 1
    56   26   27 1
    57   27   28 1
    58   28   29 2
    59   28   30 1
    60   30   60 1
    61   30   61 1
    62   31   35 1
    63   31   32 2
    64   32   33 1
    65   32   62 1
    66   33   34 2
    67   33   63 1
    68   34   35 1
    69   34   64 1
