@<TRIPOS>MOLECULE
CHEMBL176144
   61    65     0     0     0
SMALL
USER_CHARGES

@<TRIPOS>ATOM
      1 C1         -0.0632    1.5404    0.0441 C.3       1 <0>        -0.1523
      2 C2         -0.0249    0.0110    0.0254 C.3       1 <0>        -0.1221
      3 C3          0.7141   -0.4958    1.2655 C.3       1 <0>        -0.1191
      4 C4          0.7523   -2.0252    1.2469 C.3       1 <0>         0.0838
      5 O1          1.4425   -2.4986    2.4051 O.3       1 <0>        -0.3636
      6 C5          1.5646   -3.8325    2.5412 C.2       1 <0>         0.6513
      7 O2          1.0980   -4.5744    1.6996 O.2       1 <0>        -0.5686
      8 N1          2.2046   -4.3449    3.6110 N.am      1 <0>        -0.5938
      9 C6          2.7686   -3.4599    4.6399 C.3       1 <0>         0.0961
     10 C7          2.1934   -3.8641    6.0029 C.3       1 <0>         0.1067
     11 N2          2.3392   -5.3179    6.1618 N.pl3     1 <0>        -0.6301
     12 C8          1.7751   -6.2029    5.1329 C.3       1 <0>         0.1065
     13 C9          2.3454   -5.7989    3.7727 C.3       1 <0>         0.1120
     14 C10         3.0024   -5.8490    7.2706 C.ar      1 <0>         0.2112
     15 C11         3.6314   -5.0021    8.1760 C.ar      1 <0>        -0.1775
     16 C12         4.2886   -5.5234    9.2741 C.ar      1 <0>        -0.0731
     17 C13         4.3246   -6.8883    9.4788 C.ar      1 <0>        -0.1434
     18 C14         3.6966   -7.7459    8.5761 C.ar      1 <0>        -0.0097
     19 C15         3.0288   -7.2207    7.4716 C.ar      1 <0>        -0.1492
     20 C16         3.7342   -9.2114    8.7941 C.2       1 <0>         0.2513
     21 C17         4.3883   -9.7285    9.8977 C.2       1 <0>        -0.2139
     22 C18         4.4040  -11.1240   10.0741 C.2       1 <0>         0.3530
     23 N3          4.9234  -11.9233   10.9926 N.2       1 <0>        -0.5236
     24 C19         4.6470  -13.1952   10.6876 C.2       1 <0>         0.3537
     25 N4          3.9457  -13.2350    9.5688 N.2       1 <0>        -0.3216
     26 N5          3.7712  -11.9111    9.1459 N.pl3     1 <0>        -0.3616
     27 C20         3.1450  -11.3376    8.0810 C.2       1 <0>         0.6531
     28 N6          3.1287  -10.0338    7.9234 N.2       1 <0>        -0.5488
     29 N7          2.5144  -12.1376    7.1569 N.pl3     1 <0>        -0.8079
     30 C21         5.0613  -14.3730   11.4787 C.2       1 <0>         0.0364
     31 C22         5.7774  -14.3463   12.6339 C.2       1 <0>        -0.1267
     32 C23         5.9432  -15.6853   13.0397 C.2       1 <0>        -0.2189
     33 C24         5.3264  -16.4552   12.1216 C.2       1 <0>        -0.0078
     34 O3          4.7898  -15.6589   11.1833 O.3       1 <0>        -0.1607
     35 H1          0.9551    1.9293    0.0445 H         1 <0>         0.0561
     36 H2         -0.5896    1.9015   -0.8394 H         1 <0>         0.0583
     37 H3         -0.5822    1.8800    0.9404 H         1 <0>         0.0561
     38 H4         -1.0432   -0.3779    0.0250 H         1 <0>         0.0662
     39 H5          0.4941   -0.3286   -0.8709 H         1 <0>         0.0663
     40 H6          1.7323   -0.1069    1.2659 H         1 <0>         0.0744
     41 H7          0.1951   -0.1563    2.1619 H         1 <0>         0.0744
     42 H8         -0.2660   -2.4142    1.2464 H         1 <0>         0.0684
     43 H9          1.2713   -2.3648    0.3505 H         1 <0>         0.0684
     44 H10         3.8537   -3.5625    4.6557 H         1 <0>         0.0775
     45 H11         2.4995   -2.4266    4.4211 H         1 <0>         0.1035
     46 H12         2.7388   -3.3530    6.7963 H         1 <0>         0.0994
     47 H13         1.1381   -3.5951    6.0490 H         1 <0>         0.0698
     48 H14         2.0443   -7.2362    5.3517 H         1 <0>         0.1021
     49 H15         0.6901   -6.1004    5.1171 H         1 <0>         0.0697
     50 H16         1.7969   -6.3098    2.9814 H         1 <0>         0.1074
     51 H17         3.3997   -6.0717    3.7254 H         1 <0>         0.0784
     52 H18         3.6067   -3.9336    8.0205 H         1 <0>         0.1268
     53 H19         4.7760   -4.8611    9.9743 H         1 <0>         0.1298
     54 H20         4.8396   -7.2919   10.3380 H         1 <0>         0.1294
     55 H21         2.5367   -7.8802    6.7721 H         1 <0>         0.1373
     56 H22         4.8758   -9.0763   10.6071 H         1 <0>         0.1686
     57 H23         2.5182  -13.1014    7.2669 H         1 <0>         0.4244
     58 H24         2.0658  -11.7382    6.3953 H         1 <0>         0.4292
     59 H25         6.1480  -13.4683   13.1421 H         1 <0>         0.1633
     60 H26         6.4657  -16.0295   13.9199 H         1 <0>         0.1597
     61 H27         5.2695  -17.5336   12.1399 H         1 <0>         0.2133
@<TRIPOS>BOND
     1    1    2 1
     2    1   35 1
     3    1   36 1
     4    1   37 1
     5    2    3 1
     6    2   38 1
     7    2   39 1
     8    3    4 1
     9    3   40 1
    10    3   41 1
    11    4    5 1
    12    4   42 1
    13    4   43 1
    14    5    6 1
    15    6    7 2
    16    6    8 am
    17    8   13 1
    18    8    9 1
    19    9   10 1
    20    9   44 1
    21    9   45 1
    22   10   11 1
    23   10   46 1
    24   10   47 1
    25   11   12 1
    26   11   14 1
    27   12   13 1
    28   12   48 1
    29   12   49 1
    30   13   50 1
    31   13   51 1
    32   14   19 ar
    33   14   15 ar
    34   15   16 ar
    35   15   52 1
    36   16   17 ar
    37   16   53 1
    38   17   18 ar
    39   17   54 1
    40   18   19 ar
    41   18   20 1
    42   19   55 1
    43   20   28 1
    44   20   21 2
    45   21   22 1
    46   21   56 1
    47   22   26 1
    48   22   23 2
    49   23   24 1
    50   24   25 2
    51   24   30 1
    52   25   26 1
    53   26   27 1
    54   27   28 2
    55   27   29 1
    56   29   57 1
    57   29   58 1
    58   30   34 1
    59   30   31 2
    60   31   32 1
    61   31   59 1
    62   32   33 2
    63   32   60 1
    64   33   34 1
    65   33   61 1
