@<TRIPOS>MOLECULE
CHEMBL603781
   54    57     0     0     0
SMALL
USER_CHARGES

@<TRIPOS>ATOM
      1 C1         -0.0187    1.5258    0.0104 C.3       1 <0>        -0.1679
      2 C2          0.0021   -0.0041    0.0020 C.3       1 <0>         0.1135
      3 N1         -1.3723   -0.5112    0.0124 N.am      1 <0>        -0.7271
      4 C3         -1.6006   -1.8394    0.0075 C.2       1 <0>         0.5160
      5 O1         -0.6682   -2.6149   -0.0056 O.2       1 <0>        -0.5032
      6 C4         -3.0144   -2.3611    0.0182 C.3       1 <0>         0.0316
      7 H1         -3.5805   -1.9494   -0.8174 H         1 <0>         0.1226
      8 C5         -3.7084   -2.0293    1.3638 C.3       1 <0>         0.0511
      9 H2         -3.0081   -2.1165    2.1945 H         1 <0>         0.0955
     10 C6         -4.8001   -3.1239    1.4442 C.3       1 <0>         0.0825
     11 H3         -4.8843   -3.5048    2.4620 H         1 <0>         0.0903
     12 C7         -4.2978   -4.2288    0.4946 C.3       1 <0>         0.3132
     13 O2         -3.0242   -3.8042   -0.0230 O.3       1 <0>        -0.3261
     14 N2         -4.1443   -5.4862    1.2305 N.pl3     1 <0>        -0.4732
     15 C8         -2.9966   -5.9535    1.7989 C.2       1 <0>         0.2724
     16 N3         -3.2189   -7.1007    2.3722 N.2       1 <0>        -0.4563
     17 C9         -4.5191   -7.4425    2.2093 C.ar      1 <0>        -0.0993
     18 C10        -5.1309   -6.4075    1.4794 C.ar      1 <0>         0.3128
     19 N4         -6.4223   -6.4970    1.1879 N.ar      1 <0>        -0.5311
     20 C11        -7.1314   -7.5463    1.5809 C.ar      1 <0>         0.4967
     21 N5         -6.5941   -8.5452    2.2757 N.ar      1 <0>        -0.5699
     22 C12        -5.3078   -8.5393    2.6016 C.ar      1 <0>         0.5154
     23 N6         -4.7575   -9.5824    3.3259 N.pl3     1 <0>        -0.8126
     24 C13        -8.5226   -7.6058    1.2465 C.1       1 <0>        -0.0967
     25 C14        -9.6631   -7.6546    0.9724 C.1       1 <0>        -0.1168
     26 C15       -11.0931   -7.7158    0.6287 C.3       1 <0>         0.2429
     27 C16       -11.8473   -6.5468    1.2954 C.3       1 <0>        -0.1439
     28 C17       -13.2111   -7.1578    1.7026 C.3       1 <0>        -0.1219
     29 C18       -12.8224   -8.5842    2.1646 C.3       1 <0>        -0.1250
     30 C19       -11.7130   -9.0111    1.1813 C.3       1 <0>        -0.1107
     31 O3        -11.2580   -7.6604   -0.7897 O.3       1 <0>        -0.5415
     32 O4         -6.0569   -2.6106    0.9981 O.3       1 <0>        -0.5313
     33 O5         -4.2936   -0.7261    1.3280 O.3       1 <0>        -0.5360
     34 H4          1.0039    1.9031    0.0027 H         1 <0>         0.0794
     35 H5         -0.5459    1.8868   -0.8726 H         1 <0>         0.0645
     36 H6         -0.5289    1.8773    0.9072 H         1 <0>         0.0637
     37 H7          0.5123   -0.3556   -0.8948 H         1 <0>         0.0732
     38 H8          0.5293   -0.3651    0.8851 H         1 <0>         0.0729
     39 H9         -2.1181    0.1091    0.0229 H         1 <0>         0.3979
     40 H10        -5.0029   -4.3610   -0.3260 H         1 <0>         0.1325
     41 H11        -2.0432   -5.4467    1.7763 H         1 <0>         0.2279
     42 H12        -3.8185   -9.5621    3.5683 H         1 <0>         0.4219
     43 H13        -5.3108  -10.3336    3.5911 H         1 <0>         0.4129
     44 H14       -11.3078   -6.1974    2.1757 H         1 <0>         0.0794
     45 H15       -11.9910   -5.7316    0.5863 H         1 <0>         0.0810
     46 H16       -13.6575   -6.5945    2.5221 H         1 <0>         0.0727
     47 H17       -13.8864   -7.1992    0.8480 H         1 <0>         0.0750
     48 H18       -12.4404   -8.5637    3.1852 H         1 <0>         0.0703
     49 H19       -13.6777   -9.2557    2.0898 H         1 <0>         0.0748
     50 H20       -12.1405   -9.5972    0.3677 H         1 <0>         0.0886
     51 H21       -10.9550   -9.5945    1.7040 H         1 <0>         0.0806
     52 H22       -10.8967   -6.8612   -1.1968 H         1 <0>         0.3830
     53 H23        -6.3912   -1.8738    1.5276 H         1 <0>         0.3972
     54 H24        -3.6563   -0.0124    1.1882 H         1 <0>         0.3845
@<TRIPOS>BOND
     1    1    2 1
     2    1   34 1
     3    1   35 1
     4    1   36 1
     5    2    3 1
     6    2   37 1
     7    2   38 1
     8    3    4 am
     9    3   39 1
    10    4    5 2
    11    4    6 1
    12    6    7 1
    13    6   13 1
    14    6    8 1
    15    8    9 1
    16    8   10 1
    17    8   33 1
    18   10   11 1
    19   10   12 1
    20   10   32 1
    21   12   13 1
    22   12   14 1
    23   12   40 1
    24   14   18 1
    25   14   15 1
    26   15   16 2
    27   15   41 1
    28   16   17 1
    29   17   22 ar
    30   17   18 ar
    31   18   19 ar
    32   19   20 ar
    33   20   21 ar
    34   20   24 1
    35   21   22 ar
    36   22   23 1
    37   23   42 1
    38   23   43 1
    39   24   25 3
    40   25   26 1
    41   26   30 1
    42   26   27 1
    43   26   31 1
    44   27   28 1
    45   27   44 1
    46   27   45 1
    47   28   29 1
    48   28   46 1
    49   28   47 1
    50   29   30 1
    51   29   48 1
    52   29   49 1
    53   30   50 1
    54   30   51 1
    55   31   52 1
    56   32   53 1
    57   33   54 1
