@<TRIPOS>MOLECULE
CHEMBL369338
   40    44     0     0     0
SMALL
USER_CHARGES

@<TRIPOS>ATOM
      1 C1         -0.0167    1.3790    0.0096 C.ar      1 <0>        -0.1171
      2 C2          1.1687    2.0919    0.0021 C.ar      1 <0>        -0.1170
      3 C3          2.3774    1.4258   -0.0129 C.ar      1 <0>        -0.1099
      4 C4          2.4022    0.0327   -0.0206 C.ar      1 <0>        -0.0468
      5 C5          1.2051   -0.6804   -0.0130 C.ar      1 <0>        -0.1102
      6 C6          0.0021   -0.0041    0.0020 C.ar      1 <0>        -0.1163
      7 C7          3.6988   -0.6890   -0.0373 C.ar      1 <0>        -0.0509
      8 C8          4.8951    0.0271   -0.0396 C.ar      1 <0>        -0.0821
      9 C9          6.1016   -0.6452   -0.0552 C.ar      1 <0>        -0.1011
     10 C10         6.1278   -2.0246   -0.0689 C.ar      1 <0>        -0.0613
     11 C11         4.9405   -2.7548   -0.0668 C.ar      1 <0>        -0.0678
     12 C12         3.7205   -2.0790   -0.0449 C.ar      1 <0>        -0.0534
     13 C13         5.2530   -4.2037   -0.0834 C.ar      1 <0>         0.2635
     14 C14         6.6323   -4.3794   -0.0960 C.ar      1 <0>        -0.2367
     15 C15         7.1500   -5.6742   -0.1131 C.ar      1 <0>         0.3109
     16 N1          6.2994   -6.7053   -0.1169 N.ar      1 <0>        -0.5476
     17 C16         4.9919   -6.5007   -0.1047 C.ar      1 <0>         0.5823
     18 N2          4.4695   -5.2841   -0.0875 N.ar      1 <0>        -0.5542
     19 N3          4.1429   -7.5941   -0.1091 N.pl3     1 <0>        -0.8166
     20 C17         8.6073   -5.9013   -0.1273 C.2       1 <0>         0.0357
     21 C18         9.2622   -6.9257    0.4848 C.2       1 <0>        -0.1392
     22 C19        10.6316   -6.7521    0.2120 C.2       1 <0>        -0.1562
     23 C20        10.7464   -5.6410   -0.5463 C.2       1 <0>        -0.0146
     24 O1          9.5216   -5.1338   -0.7535 O.3       1 <0>        -0.1458
     25 Br1        12.3642   -4.9229   -1.2120 Br        1 <0>         0.0639
     26 C21         7.2683   -3.0144   -0.0876 C.3       1 <0>        -0.0273
     27 H1         -0.9602    1.9042    0.0260 H         1 <0>         0.1237
     28 H2          1.1483    3.1716    0.0077 H         1 <0>         0.1255
     29 H3          3.3023    1.9833   -0.0191 H         1 <0>         0.1264
     30 H4          1.2187   -1.7603   -0.0193 H         1 <0>         0.1260
     31 H5         -0.9264   -0.5558    0.0079 H         1 <0>         0.1253
     32 H6          4.8784    1.1069   -0.0296 H         1 <0>         0.1362
     33 H7          7.0275   -0.0892   -0.0569 H         1 <0>         0.1356
     34 H8          2.7944   -2.6346   -0.0384 H         1 <0>         0.1342
     35 H9          4.5089   -8.4923   -0.1211 H         1 <0>         0.4178
     36 H10         3.1820   -7.4620   -0.1003 H         1 <0>         0.4178
     37 H11         8.8168   -7.7182    1.0679 H         1 <0>         0.1663
     38 H12        11.4384   -7.3875    0.5463 H         1 <0>         0.1679
     39 H13         7.8714   -2.8756   -0.9849 H         1 <0>         0.1077
     40 H14         7.8854   -2.8931    0.8027 H         1 <0>         0.1055
@<TRIPOS>BOND
     1    1    6 ar
     2    1    2 ar
     3    1   27 1
     4    2    3 ar
     5    2   28 1
     6    3    4 ar
     7    3   29 1
     8    4    5 ar
     9    4    7 1
    10    5    6 ar
    11    5   30 1
    12    6   31 1
    13    7   12 ar
    14    7    8 ar
    15    8    9 ar
    16    8   32 1
    17    9   10 ar
    18    9   33 1
    19   10   26 1
    20   10   11 ar
    21   11   12 ar
    22   11   13 1
    23   12   34 1
    24   13   18 ar
    25   13   14 ar
    26   14   15 ar
    27   14   26 1
    28   15   16 ar
    29   15   20 1
    30   16   17 ar
    31   17   18 ar
    32   17   19 1
    33   19   35 1
    34   19   36 1
    35   20   24 1
    36   20   21 2
    37   21   22 1
    38   21   37 1
    39   22   23 2
    40   22   38 1
    41   23   24 1
    42   23   25 1
    43   26   39 1
    44   26   40 1
