@<TRIPOS>MOLECULE
CHEMBL168892
   35    37     0     0     0
SMALL
USER_CHARGES

@<TRIPOS>ATOM
      1 C1         -0.0173    1.4248    0.0099 C.3       1 <0>         0.0251
      2 O1          0.0021   -0.0041    0.0020 O.3       1 <0>        -0.3123
      3 C2         -1.2003   -0.6375    0.0101 C.ar      1 <0>         0.1294
      4 C3         -2.3748    0.1031    0.0196 C.ar      1 <0>        -0.1883
      5 C4         -3.6004   -0.5362    0.0283 C.ar      1 <0>        -0.0758
      6 C5         -3.6643   -1.9150    0.0271 C.ar      1 <0>        -0.1362
      7 C6         -2.4894   -2.6671    0.0172 C.ar      1 <0>         0.0031
      8 C7         -1.2537   -2.0211    0.0032 C.ar      1 <0>        -0.0977
      9 C8         -2.5544   -4.1455    0.0165 C.2       1 <0>         0.3300
     10 N1         -1.5250   -4.9678    0.0081 N.2       1 <0>        -0.5189
     11 C9         -1.9548   -6.2264    0.0103 C.2       1 <0>         0.2361
     12 N2         -3.2627   -6.2344    0.0201 N.2       1 <0>        -0.2995
     13 H1         -4.5951   -4.5694    0.0424 H         1 <0>         0.4424
     14 N3         -3.6811   -4.8938    0.0303 N.pl3     1 <0>        -0.4733
     15 C10        -1.0745   -7.4495    0.0020 C.3       1 <0>         0.0133
     16 C11        -0.7695   -7.8586    1.4200 C.ar      1 <0>        -0.0795
     17 C12         0.3390   -7.3423    2.0651 C.ar      1 <0>        -0.0853
     18 C13         0.6192   -7.7171    3.3657 C.ar      1 <0>        -0.1142
     19 C14        -0.2089   -8.6086    4.0220 C.ar      1 <0>        -0.0892
     20 C15        -1.3181   -9.1249    3.3772 C.ar      1 <0>        -0.0919
     21 C16        -1.6011   -8.7454    2.0772 C.ar      1 <0>        -0.0773
     22 Br1        -2.4509  -10.3449    4.2741 Br        1 <0>        -0.0500
     23 H2          1.0053    1.8021    0.0021 H         1 <0>         0.1041
     24 H3         -0.5445    1.7859   -0.8732 H         1 <0>         0.0579
     25 H4         -0.5275    1.7763    0.9067 H         1 <0>         0.0578
     26 H5         -2.3306    1.1822    0.0205 H         1 <0>         0.1353
     27 H6         -4.5106    0.0450    0.0363 H         1 <0>         0.1353
     28 H7         -4.6234   -2.4113    0.0343 H         1 <0>         0.1243
     29 H8         -0.3410   -2.5983   -0.0086 H         1 <0>         0.1490
     30 H9         -1.5887   -8.2638   -0.5085 H         1 <0>         0.1022
     31 H10        -0.1441   -7.2239   -0.5192 H         1 <0>         0.1083
     32 H11         0.9863   -6.6461    1.5526 H         1 <0>         0.1345
     33 H12         1.4854   -7.3139    3.8691 H         1 <0>         0.1340
     34 H13         0.0105   -8.9020    5.0379 H         1 <0>         0.1328
     35 H14        -2.4693   -9.1455    1.5746 H         1 <0>         0.1343
@<TRIPOS>BOND
     1    1    2 1
     2    1   23 1
     3    1   24 1
     4    1   25 1
     5    2    3 1
     6    3    8 ar
     7    3    4 ar
     8    4    5 ar
     9    4   26 1
    10    5    6 ar
    11    5   27 1
    12    6    7 ar
    13    6   28 1
    14    7    8 ar
    15    7    9 1
    16    8   29 1
    17    9   10 2
    18    9   14 1
    19   10   11 1
    20   11   15 1
    21   11   12 2
    22   12   14 1
    23   13   14 1
    24   15   16 1
    25   15   30 1
    26   15   31 1
    27   16   21 ar
    28   16   17 ar
    29   17   18 ar
    30   17   32 1
    31   18   19 ar
    32   18   33 1
    33   19   20 ar
    34   19   34 1
    35   20   21 ar
    36   20   22 1
    37   21   35 1
