@<TRIPOS>MOLECULE
CHEMBL68738
   45    48     0     0     0
SMALL
USER_CHARGES

@<TRIPOS>ATOM
      1 C1         -0.0158    1.3119    0.0093 C.ar      1 <0>         0.3630
      2 N1          1.0888    2.0360    0.0026 N.ar      1 <0>        -0.5880
      3 C2          2.2875    1.4625   -0.0119 C.ar      1 <0>         0.5071
      4 C3          2.3582    0.0588   -0.0202 C.ar      1 <0>        -0.1100
      5 C4          1.1547   -0.6659   -0.0126 C.ar      1 <0>         0.3119
      6 N2          0.0021   -0.0041    0.0020 N.ar      1 <0>        -0.5516
      7 N3          1.5110   -1.9908   -0.0227 N.pl3     1 <0>        -0.4809
      8 C5          2.8729   -2.0476   -0.0358 C.2       1 <0>         0.2565
      9 N4          3.3680   -0.8441   -0.0343 N.2       1 <0>        -0.4608
     10 C6          0.5956   -3.1347   -0.0195 C.3       1 <0>         0.3145
     11 H1         -0.2913   -2.9000   -0.6081 H         1 <0>         0.1356
     12 C7          0.1873   -3.4747    1.4300 C.3       1 <0>         0.0825
     13 H2          0.9252   -3.0994    2.1390 H         1 <0>         0.0919
     14 C8          0.1764   -5.0276    1.4137 C.3       1 <0>         0.0448
     15 H3          0.3908   -5.4324    2.4028 H         1 <0>         0.0949
     16 C9          1.3353   -5.3195    0.4275 C.3       1 <0>         0.0450
     17 H4          2.2934   -5.2720    0.9450 H         1 <0>         0.0967
     18 O1          1.2521   -4.2839   -0.5671 O.3       1 <0>        -0.3394
     19 C10         1.1493   -6.6939   -0.2186 C.3       1 <0>         0.0756
     20 O2          2.2838   -6.9944   -1.0339 O.3       1 <0>        -0.5632
     21 O3         -1.0650   -5.5287    0.9137 O.3       1 <0>        -0.5323
     22 O4         -1.1105   -2.9560    1.7278 O.3       1 <0>        -0.5227
     23 N5          3.4393    2.2295   -0.0193 N.pl3     1 <0>        -0.6878
     24 C11         3.3458    3.6915   -0.0110 C.3       1 <0>         0.1465
     25 C12         3.2434    4.2227   -1.4557 C.3       1 <0>        -0.1339
     26 C13         4.0688    5.5332   -1.4380 C.3       1 <0>        -0.1249
     27 C14         5.2562    5.1767   -0.5095 C.3       1 <0>        -0.1248
     28 C15         4.6256    4.2981    0.5906 C.3       1 <0>        -0.1337
     29 H5         -0.9693    1.8187    0.0257 H         1 <0>         0.2036
     30 H6          3.4551   -2.9572   -0.0459 H         1 <0>         0.2192
     31 H7          1.0502   -7.4508    0.5595 H         1 <0>         0.0647
     32 H8          0.2504   -6.6868   -0.8352 H         1 <0>         0.0660
     33 H9          2.2341   -7.8531   -1.4758 H         1 <0>         0.3866
     34 H10        -1.1168   -6.4938    0.8856 H         1 <0>         0.3829
     35 H11        -1.4122   -3.1435    2.6272 H         1 <0>         0.3885
     36 H12         4.3085    1.7992   -0.0299 H         1 <0>         0.4158
     37 H13         2.4764    4.0065    0.5660 H         1 <0>         0.0981
     38 H14         3.6762    3.5086   -2.1563 H         1 <0>         0.0676
     39 H15         2.2046    4.4296   -1.7133 H         1 <0>         0.0735
     40 H16         4.4221    5.7807   -2.4391 H         1 <0>         0.0684
     41 H17         3.4840    6.3525   -1.0200 H         1 <0>         0.0704
     42 H18         6.0141    4.6167   -1.0573 H         1 <0>         0.0666
     43 H19         5.6864    6.0798   -0.0766 H         1 <0>         0.0689
     44 H20         4.3771    4.9082    1.4590 H         1 <0>         0.0764
     45 H21         5.3162    3.5047    0.8764 H         1 <0>         0.0706
@<TRIPOS>BOND
     1    1    6 ar
     2    1    2 ar
     3    1   29 1
     4    2    3 ar
     5    3    4 ar
     6    3   23 1
     7    4    9 1
     8    4    5 ar
     9    5    6 ar
    10    5    7 1
    11    7    8 1
    12    7   10 1
    13    8    9 2
    14    8   30 1
    15   10   11 1
    16   10   18 1
    17   10   12 1
    18   12   13 1
    19   12   14 1
    20   12   22 1
    21   14   15 1
    22   14   16 1
    23   14   21 1
    24   16   17 1
    25   16   18 1
    26   16   19 1
    27   19   20 1
    28   19   31 1
    29   19   32 1
    30   20   33 1
    31   21   34 1
    32   22   35 1
    33   23   24 1
    34   23   36 1
    35   24   28 1
    36   24   25 1
    37   24   37 1
    38   25   26 1
    39   25   38 1
    40   25   39 1
    41   26   27 1
    42   26   40 1
    43   26   41 1
    44   27   28 1
    45   27   42 1
    46   27   43 1
    47   28   44 1
    48   28   45 1
