@<TRIPOS>MOLECULE
CHEMBL291471
   64    67     0     0     0
SMALL
USER_CHARGES

@<TRIPOS>ATOM
      1 C1         -0.0187    1.5258    0.0104 C.3       1 <0>        -0.1665
      2 C2          0.0021   -0.0041    0.0020 C.3       1 <0>         0.1129
      3 N1         -1.3723   -0.5112    0.0124 N.am      1 <0>        -0.7295
      4 C3         -1.6006   -1.8394    0.0075 C.2       1 <0>         0.4959
      5 O1         -0.6682   -2.6149   -0.0056 O.2       1 <0>        -0.5067
      6 C4         -3.0144   -2.3611    0.0182 C.3       1 <0>         0.0437
      7 H1         -3.5693   -1.9423   -0.8214 H         1 <0>         0.1268
      8 C5         -3.7041   -1.9776    1.3451 C.3       1 <0>         0.0507
      9 H2         -2.9665   -1.7866    2.1246 H         1 <0>         0.0947
     10 C6         -4.5311   -3.2521    1.6670 C.3       1 <0>         0.0783
     11 H3         -4.6779   -3.3642    2.7412 H         1 <0>         0.1016
     12 C7         -3.5965   -4.3569    1.1129 C.3       1 <0>         0.3238
     13 O2         -3.0056   -3.7907   -0.0698 O.3       1 <0>        -0.3330
     14 N2         -4.3702   -5.5529    0.7708 N.pl3     1 <0>        -0.4663
     15 C8         -4.8577   -5.8738   -0.4625 C.2       1 <0>         0.2634
     16 N3         -5.4963   -7.0058   -0.4069 N.2       1 <0>        -0.4566
     17 C9         -5.4598   -7.4826    0.8618 C.ar      1 <0>        -0.1514
     18 C10        -4.7324   -6.5589    1.6305 C.ar      1 <0>         0.3549
     19 N4         -4.5453   -6.7981    2.9245 N.ar      1 <0>        -0.6200
     20 C11        -5.0341   -7.8929    3.4843 C.ar      1 <0>         0.6323
     21 N5         -5.7242   -8.7929    2.7956 N.ar      1 <0>        -0.6215
     22 C12        -5.9644   -8.6291    1.4993 C.ar      1 <0>         0.5441
     23 N6         -6.6836   -9.5739    0.7890 N.pl3     1 <0>        -0.8162
     24 N7         -4.8177   -8.1070    4.8356 N.pl3     1 <0>        -0.6952
     25 C13        -5.3478   -9.3107    5.4807 C.3       1 <0>         0.1441
     26 C14        -4.9707   -9.3029    6.9635 C.3       1 <0>        -0.0853
     27 C15        -5.5160  -10.5412    7.6270 C.ar      1 <0>        -0.1036
     28 C16        -6.7823  -10.5277    8.1812 C.ar      1 <0>        -0.1104
     29 C17        -7.2825  -11.6636    8.7899 C.ar      1 <0>        -0.1198
     30 C18        -6.5165  -12.8131    8.8440 C.ar      1 <0>        -0.0611
     31 C19        -5.2506  -12.8268    8.2890 C.ar      1 <0>        -0.1196
     32 C20        -4.7520  -11.6922    7.6766 C.ar      1 <0>        -0.1102
     33 C21        -7.0615  -14.0511    9.5084 C.3       1 <0>        -0.0620
     34 C22        -7.8030  -14.9005    8.4743 C.3       1 <0>        -0.1744
     35 C23        -8.3479  -16.1385    9.1387 C.2       1 <0>         0.4893
     36 O3         -8.1605  -16.3242   10.3290 O.co2     1 <0>        -0.6990
     37 O4         -8.9761  -16.9544    8.4859 O.co2     1 <0>        -0.7060
     38 O5         -5.7828   -3.2417    0.9776 O.3       1 <0>        -0.5308
     39 O6         -4.5567   -0.8449    1.1663 O.3       1 <0>        -0.5374
     40 H4          1.0039    1.9031    0.0027 H         1 <0>         0.0773
     41 H5         -0.5459    1.8868   -0.8726 H         1 <0>         0.0634
     42 H6         -0.5289    1.8773    0.9072 H         1 <0>         0.0629
     43 H7          0.5123   -0.3556   -0.8948 H         1 <0>         0.0711
     44 H8          0.5293   -0.3651    0.8851 H         1 <0>         0.0708
     45 H9         -2.1181    0.1091    0.0229 H         1 <0>         0.3968
     46 H10        -2.8246   -4.6006    1.8429 H         1 <0>         0.1277
     47 H11        -4.7325   -5.2759   -1.3532 H         1 <0>         0.2146
     48 H12        -6.8444   -9.4488   -0.1594 H         1 <0>         0.4191
     49 H13        -7.0271  -10.3613    1.2394 H         1 <0>         0.4106
     50 H14        -4.3151   -7.4598    5.3548 H         1 <0>         0.4123
     51 H15        -6.4331   -9.3279    5.3819 H         1 <0>         0.0702
     52 H16        -4.9254  -10.1948    5.0031 H         1 <0>         0.0703
     53 H17        -3.8853   -9.2858    7.0622 H         1 <0>         0.0754
     54 H18        -5.3930   -8.4188    7.4411 H         1 <0>         0.0752
     55 H19        -7.3807   -9.6297    8.1389 H         1 <0>         0.1167
     56 H20        -8.2716  -11.6529    9.2234 H         1 <0>         0.1207
     57 H21        -4.6520  -13.7248    8.3316 H         1 <0>         0.1208
     58 H22        -3.7644  -11.7041    7.2397 H         1 <0>         0.1169
     59 H23        -6.2392  -14.6286    9.9308 H         1 <0>         0.0703
     60 H24        -7.7496  -13.7638   10.3034 H         1 <0>         0.0702
     61 H25        -8.6253  -14.3230    8.0519 H         1 <0>         0.0570
     62 H26        -7.1148  -15.1878    7.6793 H         1 <0>         0.0570
     63 H27        -6.3572   -2.5014    1.2166 H         1 <0>         0.3926
     64 H28        -4.0940   -0.0456    0.8797 H         1 <0>         0.3857
@<TRIPOS>BOND
     1    1    2 1
     2    1   40 1
     3    1   41 1
     4    1   42 1
     5    2    3 1
     6    2   43 1
     7    2   44 1
     8    3    4 am
     9    3   45 1
    10    4    5 2
    11    4    6 1
    12    6    7 1
    13    6   13 1
    14    6    8 1
    15    8    9 1
    16    8   10 1
    17    8   39 1
    18   10   11 1
    19   10   12 1
    20   10   38 1
    21   12   13 1
    22   12   14 1
    23   12   46 1
    24   14   18 1
    25   14   15 1
    26   15   16 2
    27   15   47 1
    28   16   17 1
    29   17   22 ar
    30   17   18 ar
    31   18   19 ar
    32   19   20 ar
    33   20   21 ar
    34   20   24 1
    35   21   22 ar
    36   22   23 1
    37   23   48 1
    38   23   49 1
    39   24   25 1
    40   24   50 1
    41   25   26 1
    42   25   51 1
    43   25   52 1
    44   26   27 1
    45   26   53 1
    46   26   54 1
    47   27   32 ar
    48   27   28 ar
    49   28   29 ar
    50   28   55 1
    51   29   30 ar
    52   29   56 1
    53   30   31 ar
    54   30   33 1
    55   31   32 ar
    56   31   57 1
    57   32   58 1
    58   33   34 1
    59   33   59 1
    60   33   60 1
    61   34   35 1
    62   34   61 1
    63   34   62 1
    64   35   36 2
    65   35   37 1
    66   38   63 1
    67   39   64 1
