@<TRIPOS>MOLECULE
CHEMBL513030
   48    53     0     0     0
SMALL
USER_CHARGES

@<TRIPOS>ATOM
      1 C1         -0.0162    1.3433    0.0094 C.2       1 <0>        -0.2200
      2 C2          1.3252    1.7744   -0.0011 C.2       1 <0>        -0.1367
      3 C3          2.0962    0.6548   -0.0144 C.2       1 <0>         0.0416
      4 O1          1.2797   -0.4166   -0.0124 O.3       1 <0>        -0.1521
      5 C4          0.0021   -0.0041    0.0020 C.2       1 <0>        -0.0038
      6 C5          3.5736    0.6193   -0.0287 C.2       1 <0>         0.3511
      7 N1          4.3223   -0.4908   -0.0472 N.2       1 <0>        -0.5157
      8 C6          5.5979   -0.1638   -0.0558 C.2       1 <0>         0.4061
      9 C7          6.8494   -0.9218   -0.0750 C.2       1 <0>        -0.2670
     10 C8          7.1770   -2.2895   -0.0925 C.2       1 <0>         0.1332
     11 N2          8.4769   -2.4024   -0.1057 N.2       1 <0>        -0.2645
     12 N3          9.0564   -1.1275   -0.0976 N.pl3     1 <0>        -0.3561
     13 C9          8.0548   -0.2036   -0.0786 C.2       1 <0>         0.3731
     14 N4          8.0263    1.1363   -0.0638 N.2       1 <0>        -0.5606
     15 C10         6.9037    1.8122   -0.0459 C.2       1 <0>         0.6929
     16 N5          5.6820    1.2042   -0.0426 N.pl3     1 <0>        -0.3764
     17 N6          4.3634    1.6766   -0.0311 N.2       1 <0>        -0.2992
     18 N7          6.9590    3.1863   -0.0316 N.pl3     1 <0>        -0.8013
     19 C11        10.4923   -0.8370   -0.1068 C.3       1 <0>         0.1408
     20 C12        10.9797   -0.7205   -1.5524 C.3       1 <0>         0.0405
     21 N8         12.4195   -0.4292   -1.5616 N.3       1 <0>        -0.5291
     22 C13        12.8813   -0.0954   -2.9183 C.3       1 <0>         0.0536
     23 C14        14.2667    0.5456   -2.8193 C.3       1 <0>        -0.0680
     24 C15        15.1676   -0.3137   -1.9732 C.ar      1 <0>         0.1895
     25 C16        14.6623   -1.2874   -1.1361 C.ar      1 <0>        -0.1868
     26 C17        15.5522   -2.0389   -0.3812 C.ar      1 <0>         0.1557
     27 N9         16.8492   -1.8011   -0.4902 N.ar      1 <0>        -0.5204
     28 C18        17.2966   -0.8649   -1.3025 C.ar      1 <0>         0.2949
     29 N10        16.4800   -0.1322   -2.0318 N.ar      1 <0>        -0.5203
     30 C19        13.1878   -1.5578   -1.0240 C.3       1 <0>         0.0966
     31 H1         -0.8931    1.9736    0.0252 H         1 <0>         0.1595
     32 H2          1.6736    2.7966    0.0006 H         1 <0>         0.1600
     33 H3         -0.8667   -0.6456    0.0076 H         1 <0>         0.2143
     34 H4          6.4721   -3.1077   -0.0946 H         1 <0>         0.2027
     35 H5          7.8178    3.6373   -0.0348 H         1 <0>         0.4310
     36 H6          6.1392    3.7046   -0.0183 H         1 <0>         0.4265
     37 H7         10.6764    0.1019    0.4155 H         1 <0>         0.1105
     38 H8         11.0292   -1.6426    0.3939 H         1 <0>         0.1013
     39 H9         10.7956   -1.6593   -2.0747 H         1 <0>         0.0509
     40 H10        10.4428    0.0852   -2.0531 H         1 <0>         0.0880
     41 H11        12.9403   -1.0034   -3.5184 H         1 <0>         0.0467
     42 H12        12.1858    0.6060   -3.3791 H         1 <0>         0.0924
     43 H13        14.6926    0.6436   -3.8179 H         1 <0>         0.0977
     44 H14        14.1775    1.5329   -2.3662 H         1 <0>         0.1016
     45 H15        15.1909   -2.8071    0.2863 H         1 <0>         0.1697
     46 H16        18.3606   -0.6935   -1.3720 H         1 <0>         0.1978
     47 H17        12.9267   -1.7052    0.0239 H         1 <0>         0.0972
     48 H18        12.9431   -2.4602   -1.5843 H         1 <0>         0.0602
@<TRIPOS>BOND
     1    1    5 2
     2    1    2 1
     3    1   31 1
     4    2    3 2
     5    2   32 1
     6    3    4 1
     7    3    6 1
     8    4    5 1
     9    5   33 1
    10    6   17 2
    11    6    7 1
    12    7    8 2
    13    8   16 1
    14    8    9 1
    15    9   13 2
    16    9   10 1
    17   10   11 2
    18   10   34 1
    19   11   12 1
    20   12   13 1
    21   12   19 1
    22   13   14 1
    23   14   15 2
    24   15   16 1
    25   15   18 1
    26   16   17 1
    27   18   35 1
    28   18   36 1
    29   19   20 1
    30   19   37 1
    31   19   38 1
    32   20   21 1
    33   20   39 1
    34   20   40 1
    35   21   30 1
    36   21   22 1
    37   22   23 1
    38   22   41 1
    39   22   42 1
    40   23   24 1
    41   23   43 1
    42   23   44 1
    43   24   29 ar
    44   24   25 ar
    45   25   26 ar
    46   25   30 1
    47   26   27 ar
    48   26   45 1
    49   27   28 ar
    50   28   29 ar
    51   28   46 1
    52   30   47 1
    53   30   48 1
