@<TRIPOS>MOLECULE
CHEMBL1095488
   53    57     0     0     0
SMALL
USER_CHARGES

@<TRIPOS>ATOM
      1 C1         -0.5221    1.1991    0.5784 C.ar      1 <0>        -0.0884
      2 C2          0.6414    1.9416    0.4842 C.ar      1 <0>        -0.1322
      3 C3          1.8617    1.3065    0.3775 C.ar      1 <0>        -0.0640
      4 C4          1.9207   -0.0870    0.3651 C.ar      1 <0>        -0.0876
      5 C5          0.7442   -0.8300    0.4608 C.ar      1 <0>        -0.0598
      6 C6         -0.4701   -0.1834    0.5666 C.ar      1 <0>        -0.1268
      7 C7          3.2274   -0.7749    0.2503 C.ar      1 <0>         0.3491
      8 C8          3.4588   -1.9894    0.9137 C.ar      1 <0>        -0.3435
      9 C9          4.7181   -2.6054    0.7738 C.ar      1 <0>         0.2951
     10 N1          5.6360   -2.0167    0.0217 N.ar      1 <0>        -0.5600
     11 C10         5.3780   -0.8660   -0.5912 C.ar      1 <0>         0.6048
     12 N2          4.2074   -0.2564   -0.4901 N.ar      1 <0>        -0.5635
     13 N3          6.3639   -0.2885   -1.3640 N.pl3     1 <0>        -0.8009
     14 C11         4.7167   -3.8638    1.5625 C.ar      1 <0>         0.0145
     15 C12         5.6877   -4.8314    1.7636 C.ar      1 <0>        -0.0957
     16 C13         5.4146   -5.9352    2.5695 C.ar      1 <0>         0.1409
     17 C14         4.1730   -6.0706    3.1726 C.ar      1 <0>        -0.1947
     18 C15         3.1968   -5.1103    2.9777 C.ar      1 <0>        -0.0076
     19 C16         3.4590   -4.0050    2.1760 C.ar      1 <0>        -0.1672
     20 C17         2.6320   -2.8371    1.7898 C.2       1 <0>         0.4624
     21 O1          1.4864   -2.6195    2.1322 O.2       1 <0>        -0.4046
     22 O2          6.3673   -6.8817    2.7645 O.3       1 <0>        -0.3222
     23 C18         6.0218   -7.9871    3.6016 C.3       1 <0>         0.0222
     24 C19         7.2128   -8.9422    3.7024 C.3       1 <0>         0.0000
     25 N4          8.3336   -8.2594    4.3624 N.4       1 <0>        -0.3879
     26 C20         9.5211   -9.1242    4.3311 C.3       1 <0>        -0.0435
     27 C21        10.6874   -8.4105    5.0190 C.3       1 <0>         0.0351
     28 O3         10.3134   -8.0801    6.3595 O.3       1 <0>        -0.3556
     29 C22         9.1463   -7.2576    6.4434 C.3       1 <0>         0.0367
     30 C23         7.9771   -7.9691    5.7580 C.3       1 <0>        -0.0504
     31 H1         -1.4746    1.7007    0.6659 H         1 <0>         0.1289
     32 H2          0.5944    3.0205    0.4939 H         1 <0>         0.1305
     33 H3          2.7693    1.8872    0.3033 H         1 <0>         0.1300
     34 H4          0.7835   -1.9092    0.4514 H         1 <0>         0.1333
     35 H5         -1.3818   -0.7576    0.6408 H         1 <0>         0.1302
     36 H6          7.2271   -0.7220   -1.4524 H         1 <0>         0.4202
     37 H7          6.1940    0.5512   -1.8189 H         1 <0>         0.4238
     38 H8          6.6559   -4.7306    1.2958 H         1 <0>         0.1497
     39 H9          3.9677   -6.9283    3.7960 H         1 <0>         0.1434
     40 H10         2.2309   -5.2189    3.4485 H         1 <0>         0.1500
     41 H11         5.7629   -7.6230    4.5958 H         1 <0>         0.0911
     42 H12         5.1687   -8.5139    3.1741 H         1 <0>         0.1164
     43 H13         6.9275   -9.8185    4.2846 H         1 <0>         0.1530
     44 H14         7.5149   -9.2531    2.7023 H         1 <0>         0.1463
     45 H15         9.3060  -10.0563    4.8536 H         1 <0>         0.1407
     46 H16         9.7865   -9.3401    3.2961 H         1 <0>         0.1446
     47 H17        11.5574   -9.0671    5.0352 H         1 <0>         0.1435
     48 H18        10.9290   -7.4985    4.4732 H         1 <0>         0.0821
     49 H19         8.9009   -7.0797    7.4904 H         1 <0>         0.1430
     50 H20         9.3351   -6.3060    5.9463 H         1 <0>         0.0820
     51 H21         7.0963   -7.3275    5.7824 H         1 <0>         0.1402
     52 H22         7.7626   -8.9017    6.2800 H         1 <0>         0.1421
     53 H23         8.5330   -7.3962    3.8795 H         1 <0>         0.4303
@<TRIPOS>BOND
     1    1    6 ar
     2    1    2 ar
     3    1   31 1
     4    2    3 ar
     5    2   32 1
     6    3    4 ar
     7    3   33 1
     8    4    5 ar
     9    4    7 1
    10    5    6 ar
    11    5   34 1
    12    6   35 1
    13    7   12 ar
    14    7    8 ar
    15    8   20 1
    16    8    9 ar
    17    9   10 ar
    18    9   14 1
    19   10   11 ar
    20   11   12 ar
    21   11   13 1
    22   13   36 1
    23   13   37 1
    24   14   19 ar
    25   14   15 ar
    26   15   16 ar
    27   15   38 1
    28   16   17 ar
    29   16   22 1
    30   17   18 ar
    31   17   39 1
    32   18   19 ar
    33   18   40 1
    34   19   20 1
    35   20   21 2
    36   22   23 1
    37   23   24 1
    38   23   41 1
    39   23   42 1
    40   24   25 1
    41   24   43 1
    42   24   44 1
    43   25   30 1
    44   25   26 1
    45   25   53 1
    46   26   27 1
    47   26   45 1
    48   26   46 1
    49   27   28 1
    50   27   47 1
    51   27   48 1
    52   28   29 1
    53   29   30 1
    54   29   49 1
    55   29   50 1
    56   30   51 1
    57   30   52 1
