@<TRIPOS>MOLECULE
CHEMBL222530
   65    71     0     0     0
SMALL
USER_CHARGES

@<TRIPOS>ATOM
      1 C1         -0.0164    1.3576    0.0095 C.ar      1 <0>        -0.1235
      2 C2          1.1696    2.0884    0.0021 C.ar      1 <0>        -0.0819
      3 C3          2.3789    1.4636   -0.0133 C.ar      1 <0>        -0.1111
      4 C4          2.4386    0.0594   -0.0214 C.ar      1 <0>         0.1658
      5 C5          1.2315   -0.6815   -0.0134 C.ar      1 <0>        -0.1302
      6 C6          0.0021   -0.0041    0.0020 C.ar      1 <0>        -0.0818
      7 C7          1.2914   -2.0893   -0.0215 C.ar      1 <0>        -0.0174
      8 C8          2.5186   -2.6829   -0.0368 C.ar      1 <0>        -0.1808
      9 C9          3.6752   -1.8942   -0.0441 C.ar      1 <0>         0.3470
     10 N1          3.6133   -0.5801   -0.0355 N.ar      1 <0>        -0.5403
     11 O1          4.8884   -2.4992   -0.0593 O.3       1 <0>        -0.3020
     12 C10         6.0372   -1.6493   -0.0662 C.3       1 <0>         0.0787
     13 C11         7.3050   -2.5055   -0.0834 C.3       1 <0>        -0.1100
     14 H1          7.2698   -3.1937   -0.9279 H         1 <0>         0.1080
     15 C12         7.4060   -3.3002    1.2231 C.3       1 <0>        -0.1301
     16 C13         8.7061   -4.1055    1.2050 C.3       1 <0>        -0.1378
     17 C14         9.9003   -3.1632    1.0187 C.3       1 <0>         0.0147
     18 H2          9.9552   -2.4728    1.8603 H         1 <0>         0.1456
     19 C15        11.1725   -4.0205    0.9733 C.3       1 <0>         0.1097
     20 N2         12.3181   -3.1661    0.6347 N.pl3     1 <0>        -0.5975
     21 C16        12.1954   -2.2936   -0.5444 C.3       1 <0>         0.0896
     22 C17        10.8970   -1.4952   -0.4081 C.3       1 <0>        -0.0203
     23 N3          9.7551   -2.4061   -0.2289 N.4       1 <0>        -0.3764
     24 C18         8.5314   -1.6026   -0.2089 C.3       1 <0>        -0.0029
     25 C19        13.4610   -3.1810    1.3895 C.2       1 <0>         0.6717
     26 N4         14.5072   -2.3615    1.0405 N.pl3     1 <0>        -0.6595
     27 C20        15.4347   -2.0050    2.0191 C.2       1 <0>         0.6289
     28 N5         15.5995   -2.9596    3.0094 N.pl3     1 <0>        -0.4291
     29 C21        14.6396   -3.9304    3.2093 C.2       1 <0>         0.4992
     30 N6         13.5309   -3.9801    2.4412 N.2       1 <0>        -0.5260
     31 N7         15.0430   -4.6799    4.2028 N.2       1 <0>        -0.4814
     32 C22        16.2318   -4.2359    4.6501 C.2       1 <0>         0.3439
     33 N8         16.6016   -3.1841    3.9386 N.2       1 <0>        -0.2734
     34 C23        17.0029   -4.8299    5.7620 C.2       1 <0>         0.0281
     35 C24        16.6370   -5.9134    6.4973 C.2       1 <0>        -0.1215
     36 C25        17.6605   -6.1273    7.4418 C.2       1 <0>        -0.2193
     37 C26        18.5909   -5.1739    7.2384 C.2       1 <0>        -0.0001
     38 O2         18.1932   -4.3955    6.2192 O.3       1 <0>        -0.1601
     39 N9         16.0870   -0.8777    2.0031 N.2       1 <0>        -0.6689
     40 H3         -0.9628    1.8777    0.0259 H         1 <0>         0.1326
     41 H4          1.1290    3.1676    0.0083 H         1 <0>         0.1338
     42 H5          3.2891    2.0448   -0.0196 H         1 <0>         0.1339
     43 H6         -0.9240   -0.5597    0.0082 H         1 <0>         0.1348
     44 H7          0.3889   -2.6824   -0.0153 H         1 <0>         0.1522
     45 H8          2.5984   -3.7600   -0.0430 H         1 <0>         0.1469
     46 H9          6.0148   -1.0154   -0.9527 H         1 <0>         0.0777
     47 H10         6.0325   -1.0248    0.8272 H         1 <0>         0.0782
     48 H11         7.4127   -2.6135    2.0695 H         1 <0>         0.0846
     49 H12         6.5567   -3.9783    1.3055 H         1 <0>         0.1064
     50 H13         8.8123   -4.6427    2.1475 H         1 <0>         0.1215
     51 H14         8.6776   -4.8208    0.3831 H         1 <0>         0.0951
     52 H15        11.3367   -4.4805    1.9477 H         1 <0>         0.1533
     53 H16        11.0614   -4.7974    0.2169 H         1 <0>         0.1062
     54 H17        13.0446   -1.6115   -0.5881 H         1 <0>         0.1281
     55 H18        12.1619   -2.8998   -1.4496 H         1 <0>         0.1151
     56 H19        10.9669   -0.8359    0.4571 H         1 <0>         0.1383
     57 H20        10.7444   -0.8965   -1.3060 H         1 <0>         0.1541
     58 H21         8.4603   -1.0231   -1.1294 H         1 <0>         0.1395
     59 H22         8.5672   -0.9219    0.6416 H         1 <0>         0.1335
     60 H23        15.7357   -6.4969    6.3806 H         1 <0>         0.1635
     61 H24        17.6930   -6.9076    8.1878 H         1 <0>         0.1617
     62 H25        19.5066   -5.0580    7.7992 H         1 <0>         0.2158
     63 H26        16.7226   -0.6751    2.7073 H         1 <0>         0.3849
     64 H27        14.5990   -2.0373    0.1309 H         1 <0>         0.4370
     65 H28         9.7150   -3.0457   -1.0083 H         1 <0>         0.4237
@<TRIPOS>BOND
     1    1    6 ar
     2    1    2 ar
     3    1   40 1
     4    2    3 ar
     5    2   41 1
     6    3    4 ar
     7    3   42 1
     8    4   10 ar
     9    4    5 ar
    10    5    6 ar
    11    5    7 ar
    12    6   43 1
    13    7    8 ar
    14    7   44 1
    15    8    9 ar
    16    8   45 1
    17    9   10 ar
    18    9   11 1
    19   11   12 1
    20   12   13 1
    21   12   46 1
    22   12   47 1
    23   13   14 1
    24   13   24 1
    25   13   15 1
    26   15   16 1
    27   15   48 1
    28   15   49 1
    29   16   17 1
    30   16   50 1
    31   16   51 1
    32   17   18 1
    33   17   23 1
    34   17   19 1
    35   19   20 1
    36   19   52 1
    37   19   53 1
    38   20   21 1
    39   20   25 1
    40   21   22 1
    41   21   54 1
    42   21   55 1
    43   22   23 1
    44   22   56 1
    45   22   57 1
    46   23   24 1
    47   23   65 1
    48   24   58 1
    49   24   59 1
    50   25   30 2
    51   25   26 1
    52   26   27 1
    53   26   64 1
    54   27   28 1
    55   27   39 2
    56   28   33 1
    57   28   29 1
    58   29   30 1
    59   29   31 2
    60   31   32 1
    61   32   33 2
    62   32   34 1
    63   34   38 1
    64   34   35 2
    65   35   36 1
    66   35   60 1
    67   36   37 2
    68   36   61 1
    69   37   38 1
    70   37   62 1
    71   39   63 1
