@<TRIPOS>MOLECULE
CHEMBL56487
   57    61     0     0     0
SMALL
USER_CHARGES

@<TRIPOS>ATOM
      1 C1         -0.0167    1.3781    0.0096 C.ar      1 <0>        -0.1214
      2 C2          1.1709    2.0855    0.0021 C.ar      1 <0>        -0.1184
      3 C3          2.3773    1.4107   -0.0130 C.ar      1 <0>        -0.1134
      4 C4          2.3960    0.0285   -0.0201 C.ar      1 <0>        -0.0813
      5 C5          1.2084   -0.6789   -0.0117 C.ar      1 <0>        -0.1133
      6 C6          0.0021   -0.0041    0.0020 C.ar      1 <0>        -0.1183
      7 C7          3.7112   -0.7071   -0.0376 C.3       1 <0>        -0.0939
      8 C8          4.1714   -0.9633    1.3989 C.3       1 <0>         0.1469
      9 N1          5.4498   -1.6784    1.3820 N.pl3     1 <0>        -0.6961
     10 C9          6.0668   -2.0225    2.5735 C.ar      1 <0>         0.6307
     11 N2          5.4773   -1.6980    3.7174 N.ar      1 <0>        -0.6237
     12 C10         6.0291   -2.0059    4.8855 C.ar      1 <0>         0.5444
     13 C11         7.2589   -2.6873    4.8896 C.ar      1 <0>        -0.1546
     14 C12         7.8453   -3.0100    3.6549 C.ar      1 <0>         0.3601
     15 N3          7.2208   -2.6680    2.5321 N.ar      1 <0>        -0.6040
     16 N4          9.0169   -3.6597    3.9504 N.pl3     1 <0>        -0.4760
     17 C13         9.1198   -3.7193    5.3096 C.2       1 <0>         0.2479
     18 N5          8.0877   -3.1484    5.8584 N.2       1 <0>        -0.4496
     19 C14         9.9803   -4.1926    2.9838 C.3       1 <0>         0.3171
     20 C15        11.0088   -3.1074    2.5957 C.3       1 <0>         0.0815
     21 H1         11.0875   -2.3569    3.3822 H         1 <0>         0.0897
     22 C16        12.3374   -3.8832    2.4529 C.3       1 <0>         0.0504
     23 H2         13.0728   -3.5163    3.1689 H         1 <0>         0.0908
     24 C17        11.9543   -5.3454    2.7717 C.3       1 <0>         0.0333
     25 H3         11.7416   -5.8910    1.8524 H         1 <0>         0.1201
     26 O1         10.7644   -5.2463    3.5843 O.3       1 <0>        -0.3268
     27 C18        13.0610   -6.0225    3.5384 C.2       1 <0>         0.5224
     28 O2         12.8731   -6.3870    4.6797 O.2       1 <0>        -0.5007
     29 N6         14.2597   -6.2229    2.9556 N.am      1 <0>        -0.6988
     30 C19        15.3356   -6.8811    3.7009 C.3       1 <0>         0.0757
     31 C20        16.7385   -6.2799    3.5951 C.3       1 <0>        -0.1899
     32 C21        16.4172   -7.6005    2.8926 C.3       1 <0>        -0.1853
     33 O3         12.8404   -3.7738    1.1198 O.3       1 <0>        -0.5318
     34 O4         10.6474   -2.4955    1.3559 O.3       1 <0>        -0.5237
     35 N7          5.4074   -1.6630    6.0730 N.pl3     1 <0>        -0.8161
     36 H4         -0.9591    1.9053    0.0259 H         1 <0>         0.1215
     37 H5          1.1563    3.1654    0.0076 H         1 <0>         0.1223
     38 H6          3.3051    1.9634   -0.0196 H         1 <0>         0.1221
     39 H7          1.2231   -1.7588   -0.0176 H         1 <0>         0.1222
     40 H8         -0.9258   -0.5567    0.0082 H         1 <0>         0.1223
     41 H9          3.5884   -1.6586   -0.5549 H         1 <0>         0.0803
     42 H10         4.4573   -0.1052   -0.5563 H         1 <0>         0.0804
     43 H11         4.2941   -0.0118    1.9163 H         1 <0>         0.0690
     44 H12         3.4252   -1.5652    1.9176 H         1 <0>         0.0691
     45 H13         5.8643   -1.9110    0.5363 H         1 <0>         0.4149
     46 H14         9.9371   -4.1737    5.8500 H         1 <0>         0.2217
     47 H15         9.4633   -4.5619    2.0982 H         1 <0>         0.1257
     48 H16        14.4100   -5.9313    2.0428 H         1 <0>         0.3993
     49 H17        15.0461   -7.3191    4.6561 H         1 <0>         0.1418
     50 H18        16.8610   -5.3946    2.9711 H         1 <0>         0.0985
     51 H19        17.3723   -6.3222    4.4810 H         1 <0>         0.1060
     52 H20        16.8396   -8.5117    3.3162 H         1 <0>         0.1074
     53 H21        16.3283   -7.5841    1.8064 H         1 <0>         0.0998
     54 H22        13.6735   -4.2426    0.9741 H         1 <0>         0.3817
     55 H23        11.2596   -1.8060    1.0644 H         1 <0>         0.3907
     56 H24         4.5592   -1.1927    6.0582 H         1 <0>         0.4094
     57 H25         5.8196   -1.8931    6.9204 H         1 <0>         0.4202
@<TRIPOS>BOND
     1    1    6 ar
     2    1    2 ar
     3    1   36 1
     4    2    3 ar
     5    2   37 1
     6    3    4 ar
     7    3   38 1
     8    4    5 ar
     9    4    7 1
    10    5    6 ar
    11    5   39 1
    12    6   40 1
    13    7    8 1
    14    7   41 1
    15    7   42 1
    16    8    9 1
    17    8   43 1
    18    8   44 1
    19    9   10 1
    20    9   45 1
    21   10   15 ar
    22   10   11 ar
    23   11   12 ar
    24   12   13 ar
    25   12   35 1
    26   13   18 1
    27   13   14 ar
    28   14   15 ar
    29   14   16 1
    30   16   17 1
    31   16   19 1
    32   17   18 2
    33   17   46 1
    34   19   26 1
    35   19   20 1
    36   19   47 1
    37   20   21 1
    38   20   22 1
    39   20   34 1
    40   22   23 1
    41   22   24 1
    42   22   33 1
    43   24   25 1
    44   24   26 1
    45   24   27 1
    46   27   28 2
    47   27   29 am
    48   29   30 1
    49   29   48 1
    50   30   32 1
    51   30   31 1
    52   30   49 1
    53   31   32 1
    54   31   50 1
    55   31   51 1
    56   32   52 1
    57   32   53 1
    58   33   54 1
    59   34   55 1
    60   35   56 1
    61   35   57 1
