@<TRIPOS>MOLECULE
CHEMBL521029
   52    55     0     0     0
SMALL
USER_CHARGES

@<TRIPOS>ATOM
      1 C1          0.1883    1.7699   -0.9812 C.3       1 <0>        -0.0739
      2 C2          0.1700    0.2774   -0.7737 C.2       1 <0>         0.0928
      3 C3          0.0476   -0.6881   -1.7802 C.2       1 <0>        -0.2643
      4 C4          0.0729   -1.9068   -1.1946 C.2       1 <0>         0.1221
      5 N1          0.2074   -1.7167    0.1445 N.pl3     1 <0>        -0.3197
      6 N2          0.2712   -0.3366    0.3765 N.2       1 <0>        -0.2633
      7 C5          0.2756   -2.7173    1.1140 C.ar      1 <0>         0.6020
      8 N3          0.2463   -2.3776    2.3913 N.ar      1 <0>        -0.5271
      9 C6          0.3088   -3.3053    3.3457 C.ar      1 <0>         0.2743
     10 C7          0.4060   -4.6468    2.9798 C.ar      1 <0>        -0.2730
     11 C8          0.4338   -4.9619    1.6233 C.ar      1 <0>         0.4412
     12 N4          0.3622   -3.9803    0.7299 N.ar      1 <0>        -0.5327
     13 N5          0.5304   -6.2862    1.2092 N.am      1 <0>        -0.6545
     14 C9          0.6704   -6.5744   -0.0999 C.2       1 <0>         0.5014
     15 O1          0.6194   -5.6870   -0.9250 O.2       1 <0>        -0.4675
     16 C10         0.8904   -7.9993   -0.5385 C.3       1 <0>        -0.1708
     17 C11         0.2759   -2.9161    4.7767 C.ar      1 <0>        -0.0624
     18 C12         0.0689   -1.5846    5.1448 C.ar      1 <0>        -0.1058
     19 C13         0.0463   -1.2722    6.4997 C.ar      1 <0>         0.1677
     20 C14         0.2290   -2.2875    7.4314 C.ar      1 <0>         0.0430
     21 N6          0.4219   -3.5335    7.0467 N.ar      1 <0>        -0.4410
     22 C15         0.4453   -3.8742    5.7744 C.ar      1 <0>         0.0707
     23 N7         -0.1569    0.0451    6.9190 N.pl3     1 <0>        -0.6246
     24 C16        -0.4866    1.1052    5.9531 C.3       1 <0>         0.0837
     25 C17        -1.7215    1.8568    6.4628 C.3       1 <0>         0.0470
     26 O2         -1.4950    2.2745    7.8112 O.3       1 <0>        -0.3774
     27 C18        -1.3045    1.1986    8.7330 C.3       1 <0>         0.0453
     28 C19        -0.0537    0.4121    8.3402 C.3       1 <0>         0.0846
     29 C20        -0.0301   -3.2350   -1.8991 C.3       1 <0>        -0.0909
     30 H1          1.2148    2.1027   -1.1352 H         1 <0>         0.0818
     31 H2         -0.4107    2.0225   -1.8561 H         1 <0>         0.0825
     32 H3         -0.2258    2.2640   -0.1023 H         1 <0>         0.0761
     33 H4         -0.0504   -0.4938   -2.8380 H         1 <0>         0.1588
     34 H5          0.4588   -5.4225    3.7294 H         1 <0>         0.1597
     35 H6          0.4970   -7.0023    1.8626 H         1 <0>         0.4260
     36 H7         -0.0726   -8.4752   -0.7237 H         1 <0>         0.1006
     37 H8          1.4831   -8.0105   -1.4531 H         1 <0>         0.1016
     38 H9          1.4196   -8.5427    0.2442 H         1 <0>         0.0848
     39 H10        -0.0696   -0.8180    4.3968 H         1 <0>         0.1502
     40 H11         0.2130   -2.0521    8.4853 H         1 <0>         0.1582
     41 H12         0.6020   -4.9073    5.5013 H         1 <0>         0.1590
     42 H13         0.3526    1.7952    5.8647 H         1 <0>         0.0762
     43 H14        -0.7020    0.6619    4.9808 H         1 <0>         0.0947
     44 H15        -1.9003    2.7306    5.8362 H         1 <0>         0.1080
     45 H16        -2.5893    1.1982    6.4266 H         1 <0>         0.0563
     46 H17        -1.1833    1.5987    9.7397 H         1 <0>         0.1083
     47 H18        -2.1707    0.5375    8.7051 H         1 <0>         0.0565
     48 H19         0.0174   -0.4898    8.9481 H         1 <0>         0.0939
     49 H20         0.8298    1.0312    8.4963 H         1 <0>         0.0766
     50 H21         0.9649   -3.5673   -2.1952 H         1 <0>         0.0837
     51 H22        -0.4734   -3.9695   -1.2267 H         1 <0>         0.1081
     52 H23        -0.6562   -3.1289   -2.7850 H         1 <0>         0.0716
@<TRIPOS>BOND
     1    1    2 1
     2    1   30 1
     3    1   31 1
     4    1   32 1
     5    2    6 2
     6    2    3 1
     7    3    4 2
     8    3   33 1
     9    4    5 1
    10    4   29 1
    11    5    6 1
    12    5    7 1
    13    7   12 ar
    14    7    8 ar
    15    8    9 ar
    16    9   10 ar
    17    9   17 1
    18   10   11 ar
    19   10   34 1
    20   11   12 ar
    21   11   13 1
    22   13   14 am
    23   13   35 1
    24   14   15 2
    25   14   16 1
    26   16   36 1
    27   16   37 1
    28   16   38 1
    29   17   22 ar
    30   17   18 ar
    31   18   19 ar
    32   18   39 1
    33   19   20 ar
    34   19   23 1
    35   20   21 ar
    36   20   40 1
    37   21   22 ar
    38   22   41 1
    39   23   28 1
    40   23   24 1
    41   24   25 1
    42   24   42 1
    43   24   43 1
    44   25   26 1
    45   25   44 1
    46   25   45 1
    47   26   27 1
    48   27   28 1
    49   27   46 1
    50   27   47 1
    51   28   48 1
    52   28   49 1
    53   29   50 1
    54   29   51 1
    55   29   52 1
