@<TRIPOS>MOLECULE
CHEMBL1087079
   39    42     0     0     0
SMALL
USER_CHARGES

@<TRIPOS>ATOM
      1 C1          0.0180   -1.1779   -0.0044 C.1       1 <0>        -0.1453
      2 C2          0.0021   -0.0041    0.0020 C.1       1 <0>        -0.2102
      3 C3         -0.0179    1.4678    0.0101 C.3       1 <0>         0.1803
      4 O1          1.3227    1.9624   -0.0000 O.3       1 <0>        -0.2847
      5 C4          1.4820    3.3075    0.0057 C.ar      1 <0>         0.4244
      6 C5          2.7847    3.8770   -0.0096 C.ar      1 <0>        -0.2049
      7 C6          4.0803    3.1965   -0.0287 C.2       1 <0>        -0.0716
      8 C7          5.1811    3.9759   -0.0416 C.2       1 <0>        -0.1474
      9 S1          4.5707    5.6403   -0.0298 S.3       1 <0>         0.1281
     10 C8          2.8326    5.2874   -0.0043 C.ar      1 <0>         0.1446
     11 N1          1.7355    6.0149    0.0166 N.ar      1 <0>        -0.4913
     12 C9          0.5454    5.4281    0.0323 C.ar      1 <0>         0.4241
     13 N2          0.4299    4.1035    0.0200 N.ar      1 <0>        -0.5790
     14 C10        -0.6781    6.2649    0.0569 C.ar      1 <0>        -0.0527
     15 C11        -0.5751    7.6552    0.0577 C.ar      1 <0>        -0.0650
     16 C12        -1.7175    8.4290    0.0803 C.ar      1 <0>        -0.1301
     17 C13        -2.9631    7.8277    0.1025 C.ar      1 <0>        -0.0928
     18 C14        -3.0715    6.4486    0.1023 C.ar      1 <0>        -0.1312
     19 C15        -1.9362    5.6646    0.0736 C.ar      1 <0>        -0.0664
     20 C16         6.6107    3.5269   -0.0607 C.3       1 <0>        -0.0404
     21 C17         6.6561    2.0383    0.3125 C.3       1 <0>        -0.1155
     22 C18         5.6030    1.2933   -0.5130 C.3       1 <0>        -0.1224
     23 C19         4.2021    1.6751   -0.0335 C.3       1 <0>        -0.0586
     24 H1          0.0322   -2.2278   -0.0102 H         1 <0>         0.2266
     25 H2         -0.5451    1.8289   -0.8729 H         1 <0>         0.0969
     26 H3         -0.5281    1.8193    0.9069 H         1 <0>         0.0969
     27 H4          0.3969    8.1257    0.0411 H         1 <0>         0.1382
     28 H5         -1.6389    9.5062    0.0809 H         1 <0>         0.1305
     29 H6         -3.8544    8.4373    0.1205 H         1 <0>         0.1274
     30 H7         -4.0466    5.9847    0.1205 H         1 <0>         0.1297
     31 H8         -2.0221    4.5880    0.0690 H         1 <0>         0.1354
     32 H9          7.0265    3.6680   -1.0584 H         1 <0>         0.0891
     33 H10         7.1865    4.1044    0.6625 H         1 <0>         0.0870
     34 H11         7.6450    1.6361    0.0924 H         1 <0>         0.0776
     35 H12         6.4390    1.9207    1.3742 H         1 <0>         0.0700
     36 H13         5.7116    1.5602   -1.5643 H         1 <0>         0.0671
     37 H14         5.7453    0.2189   -0.3968 H         1 <0>         0.0725
     38 H15         4.0440    1.2929    0.9750 H         1 <0>         0.0797
     39 H16         3.4578    1.2512   -0.7076 H         1 <0>         0.0831
@<TRIPOS>BOND
     1    1    2 3
     2    1   24 1
     3    2    3 1
     4    3    4 1
     5    3   25 1
     6    3   26 1
     7    4    5 1
     8    5   13 ar
     9    5    6 ar
    10    6   10 ar
    11    6    7 1
    12    7   23 1
    13    7    8 2
    14    8    9 1
    15    8   20 1
    16    9   10 1
    17   10   11 ar
    18   11   12 ar
    19   12   13 ar
    20   12   14 1
    21   14   19 ar
    22   14   15 ar
    23   15   16 ar
    24   15   27 1
    25   16   17 ar
    26   16   28 1
    27   17   18 ar
    28   17   29 1
    29   18   19 ar
    30   18   30 1
    31   19   31 1
    32   20   21 1
    33   20   32 1
    34   20   33 1
    35   21   22 1
    36   21   34 1
    37   21   35 1
    38   22   23 1
    39   22   36 1
    40   22   37 1
    41   23   38 1
    42   23   39 1
