@<TRIPOS>MOLECULE
CHEMBL611607
   51    54     0     0     0
SMALL
USER_CHARGES

@<TRIPOS>ATOM
      1 C1         -0.0164    1.3601    0.0095 C.2       1 <0>         0.2494
      2 N1          1.2003    1.8207    0.0004 N.2       1 <0>        -0.4505
      3 C2          2.0748    0.7851   -0.0135 C.ar      1 <0>        -0.1448
      4 C3          3.4767    0.6778   -0.0279 C.ar      1 <0>         0.5383
      5 N2          4.0210   -0.5334   -0.0400 N.ar      1 <0>        -0.5918
      6 C4          3.2657   -1.6250   -0.0386 C.ar      1 <0>         0.6502
      7 N3          1.9437   -1.5691   -0.0253 N.ar      1 <0>        -0.5990
      8 C5          1.3165   -0.3973   -0.0126 C.ar      1 <0>         0.3561
      9 N4          0.0021   -0.0041    0.0020 N.pl3     1 <0>        -0.4733
     10 C6         -1.1669   -0.8870    0.0089 C.3       1 <0>         0.3154
     11 C7         -1.5541   -1.2554    1.4583 C.3       1 <0>         0.0792
     12 H1         -1.1953   -0.4969    2.1540 H         1 <0>         0.0861
     13 C8         -3.0988   -1.2844    1.4384 C.3       1 <0>         0.0470
     14 H2         -3.5037   -0.5402    2.1242 H         1 <0>         0.0870
     15 C9         -3.4622   -0.9301   -0.0207 C.3       1 <0>         0.0505
     16 H3         -3.6137   -1.8377   -0.6051 H         1 <0>         0.0992
     17 O1         -2.3213   -0.1969   -0.5174 O.3       1 <0>        -0.3462
     18 C10        -4.7178   -0.0568   -0.0599 C.3       1 <0>         0.0822
     19 O2         -5.1032    0.1626   -1.4183 O.3       1 <0>        -0.5634
     20 O3         -3.5795   -2.5874    1.7747 O.3       1 <0>        -0.5394
     21 O4         -1.0309   -2.5390    1.8055 O.3       1 <0>        -0.5268
     22 N5          3.8829   -2.8658   -0.0520 N.pl3     1 <0>        -0.5478
     23 N6          5.2811   -2.9525   -0.0667 N.2       1 <0>        -0.2066
     24 C11         5.8512   -4.0986   -0.0791 C.2       1 <0>         0.0635
     25 C12         7.3552   -4.1919   -0.0949 C.3       1 <0>        -0.0308
     26 C13         7.8362   -4.9748    1.1333 C.3       1 <0>        -0.1101
     27 C14         9.3637   -4.9008    1.1868 C.3       1 <0>        -0.0915
     28 C15         9.9456   -5.2576   -0.1497 C.2       1 <0>        -0.1557
     29 C16         9.2714   -5.2685   -1.2547 C.2       1 <0>        -0.1546
     30 C17         7.8113   -4.9358   -1.3521 C.3       1 <0>        -0.0817
     31 N7          4.2721    1.8100   -0.0299 N.pl3     1 <0>        -0.8140
     32 H4         -0.9091    1.9678    0.0254 H         1 <0>         0.2211
     33 H5         -0.9653   -1.7869   -0.5722 H         1 <0>         0.1211
     34 H6         -5.5266   -0.5593    0.4706 H         1 <0>         0.0665
     35 H7         -4.5096    0.9006    0.4179 H         1 <0>         0.0613
     36 H8         -5.8940    0.7099   -1.5193 H         1 <0>         0.3866
     37 H9         -4.5436   -2.6624    1.7773 H         1 <0>         0.3870
     38 H10        -1.2444   -2.8204    2.7057 H         1 <0>         0.3898
     39 H11         3.3468   -3.6742   -0.0513 H         1 <0>         0.4026
     40 H12         5.2543   -4.9987   -0.0783 H         1 <0>         0.1093
     41 H13         7.7846   -3.1901   -0.0860 H         1 <0>         0.0942
     42 H14         7.4162   -4.5331    2.0370 H         1 <0>         0.0697
     43 H15         7.5225   -6.0154    1.0505 H         1 <0>         0.0698
     44 H16         9.6673   -3.8887    1.4544 H         1 <0>         0.0763
     45 H17         9.7331   -5.5975    1.9392 H         1 <0>         0.0749
     46 H18        10.9920   -5.5213   -0.1924 H         1 <0>         0.1035
     47 H19         9.7920   -5.5336   -2.1630 H         1 <0>         0.1054
     48 H20         7.2370   -5.8564   -1.4554 H         1 <0>         0.0777
     49 H21         7.6416   -4.3065   -2.2258 H         1 <0>         0.0759
     50 H22         3.8636    2.6897   -0.0213 H         1 <0>         0.4200
     51 H23         5.2382    1.7240   -0.0398 H         1 <0>         0.4111
@<TRIPOS>BOND
     1    1    9 1
     2    1    2 2
     3    1   32 1
     4    2    3 1
     5    3    8 ar
     6    3    4 ar
     7    4    5 ar
     8    4   31 1
     9    5    6 ar
    10    6    7 ar
    11    6   22 1
    12    7    8 ar
    13    8    9 1
    14    9   10 1
    15   10   17 1
    16   10   11 1
    17   10   33 1
    18   11   12 1
    19   11   13 1
    20   11   21 1
    21   13   14 1
    22   13   15 1
    23   13   20 1
    24   15   16 1
    25   15   17 1
    26   15   18 1
    27   18   19 1
    28   18   34 1
    29   18   35 1
    30   19   36 1
    31   20   37 1
    32   21   38 1
    33   22   23 1
    34   22   39 1
    35   23   24 2
    36   24   25 1
    37   24   40 1
    38   25   30 1
    39   25   26 1
    40   25   41 1
    41   26   27 1
    42   26   42 1
    43   26   43 1
    44   27   28 1
    45   27   44 1
    46   27   45 1
    47   28   29 2
    48   28   46 1
    49   29   30 1
    50   29   47 1
    51   30   48 1
    52   30   49 1
    53   31   50 1
    54   31   51 1
