@<TRIPOS>MOLECULE
CHEMBL605878
   55    59     0     0     0
SMALL
USER_CHARGES

@<TRIPOS>ATOM
      1 C1         -0.0164    1.3567    0.0095 C.ar      1 <0>        -0.1158
      2 C2          1.1686    2.0905    0.0021 C.ar      1 <0>        -0.1160
      3 C3          2.3785    1.4675   -0.0131 C.ar      1 <0>        -0.1061
      4 C4          2.4375    0.0634   -0.0211 C.ar      1 <0>        -0.0506
      5 C5          3.6681   -0.6153   -0.0364 C.ar      1 <0>        -0.0968
      6 C6          3.6865   -1.9761   -0.0434 C.ar      1 <0>        -0.0786
      7 C7          2.5015   -2.7098   -0.0357 C.ar      1 <0>        -0.1082
      8 C8          1.2917   -2.0868   -0.0209 C.ar      1 <0>        -0.1029
      9 C9          1.2327   -0.6827   -0.0133 C.ar      1 <0>        -0.0522
     10 C10         0.0021   -0.0041    0.0020 C.ar      1 <0>        -0.1068
     11 C11         5.0079   -2.7004   -0.0602 C.3       1 <0>        -0.0815
     12 C12         5.4695   -2.9528    1.3765 C.3       1 <0>         0.0841
     13 O1          6.7225   -3.6396    1.3605 O.3       1 <0>        -0.2859
     14 C13         7.2739   -3.9414    2.5609 C.ar      1 <0>         0.5684
     15 N1          6.6298   -3.5939    3.6661 N.ar      1 <0>        -0.6308
     16 C14         7.1286   -3.8670    4.8666 C.ar      1 <0>         0.5420
     17 C15         8.3620   -4.5367    4.9451 C.ar      1 <0>        -0.1303
     18 C16         9.0073   -4.8846    3.7472 C.ar      1 <0>         0.3412
     19 N2          8.4323   -4.5763    2.5887 N.ar      1 <0>        -0.5679
     20 N3         10.1692   -5.5160    4.1126 N.pl3     1 <0>        -0.4597
     21 C17        10.2098   -5.5407    5.4759 C.2       1 <0>         0.2839
     22 N4          9.1488   -4.9658    5.9621 N.2       1 <0>        -0.4615
     23 C18        11.1804   -6.0639    3.2051 C.3       1 <0>         0.3166
     24 C19        12.2147   -4.9727    2.8305 C.3       1 <0>         0.0749
     25 H1         11.8784   -4.3907    1.9724 H         1 <0>         0.0983
     26 C20        13.4461   -5.8462    2.4666 C.3       1 <0>         0.0486
     27 H2         13.3876   -6.1879    1.4332 H         1 <0>         0.0917
     28 C21        13.3079   -7.0316    3.4459 C.3       1 <0>         0.0600
     29 H3         13.9531   -6.8743    4.3102 H         1 <0>         0.1081
     30 O2         11.9395   -7.0893    3.8652 O.3       1 <0>        -0.3495
     31 C22        13.6923   -8.3343    2.7415 C.3       1 <0>         0.0647
     32 O3         13.6742   -9.4085    3.6837 O.3       1 <0>        -0.5615
     33 O4         14.6622   -5.1314    2.6954 O.3       1 <0>        -0.5428
     34 O5         12.4953   -4.1245    3.9458 O.3       1 <0>        -0.5335
     35 N5          6.4491   -3.5000    6.0146 N.pl3     1 <0>        -0.8124
     36 H4         -0.9633    1.8757    0.0259 H         1 <0>         0.1235
     37 H5          1.1260    3.1696    0.0083 H         1 <0>         0.1236
     38 H6          3.2884    2.0491   -0.0194 H         1 <0>         0.1272
     39 H7          4.5943   -0.0599   -0.0428 H         1 <0>         0.1285
     40 H8          2.5441   -3.7890   -0.0419 H         1 <0>         0.1251
     41 H9          0.3816   -2.6684   -0.0154 H         1 <0>         0.1287
     42 H10        -0.9241   -0.5595    0.0082 H         1 <0>         0.1272
     43 H11         4.8935   -3.6529   -0.5777 H         1 <0>         0.0866
     44 H12         5.7491   -2.0921   -0.5784 H         1 <0>         0.0858
     45 H13         5.5838   -2.0003    1.8940 H         1 <0>         0.0728
     46 H14         4.7282   -3.5612    1.8947 H         1 <0>         0.0734
     47 H15        11.0051   -5.9736    6.0645 H         1 <0>         0.2206
     48 H16        10.7066   -6.4622    2.3079 H         1 <0>         0.1279
     49 H17        12.9796   -8.5395    1.9428 H         1 <0>         0.0556
     50 H18        14.6928   -8.2377    2.3198 H         1 <0>         0.0614
     51 H19        13.9086  -10.2672    3.3058 H         1 <0>         0.3842
     52 H20        15.4601   -5.6346    2.4830 H         1 <0>         0.3906
     53 H21        13.1377   -3.4267    3.7575 H         1 <0>         0.3935
     54 H22         5.5988   -3.0380    5.9482 H         1 <0>         0.4107
     55 H23         6.8231   -3.7047    6.8859 H         1 <0>         0.4221
@<TRIPOS>BOND
     1    1   10 ar
     2    1    2 ar
     3    1   36 1
     4    2    3 ar
     5    2   37 1
     6    3    4 ar
     7    3   38 1
     8    4    9 ar
     9    4    5 ar
    10    5    6 ar
    11    5   39 1
    12    6    7 ar
    13    6   11 1
    14    7    8 ar
    15    7   40 1
    16    8    9 ar
    17    8   41 1
    18    9   10 ar
    19   10   42 1
    20   11   12 1
    21   11   43 1
    22   11   44 1
    23   12   13 1
    24   12   45 1
    25   12   46 1
    26   13   14 1
    27   14   19 ar
    28   14   15 ar
    29   15   16 ar
    30   16   17 ar
    31   16   35 1
    32   17   22 1
    33   17   18 ar
    34   18   19 ar
    35   18   20 1
    36   20   21 1
    37   20   23 1
    38   21   22 2
    39   21   47 1
    40   23   30 1
    41   23   24 1
    42   23   48 1
    43   24   25 1
    44   24   26 1
    45   24   34 1
    46   26   27 1
    47   26   28 1
    48   26   33 1
    49   28   29 1
    50   28   30 1
    51   28   31 1
    52   31   32 1
    53   31   49 1
    54   31   50 1
    55   32   51 1
    56   33   52 1
    57   34   53 1
    58   35   54 1
    59   35   55 1
