@<TRIPOS>MOLECULE
CHEMBL511159
   60    63     0     0     0
SMALL
USER_CHARGES

@<TRIPOS>ATOM
      1 C1          0.1445    1.7042   -0.8789 C.3       1 <0>        -0.0744
      2 C2          0.1353    0.2133   -0.6593 C.2       1 <0>         0.0958
      3 C3          0.0156   -0.7610   -1.6575 C.2       1 <0>        -0.2621
      4 C4          0.0501   -1.9747   -1.0622 C.2       1 <0>         0.1228
      5 N1          0.1877   -1.7730    0.2749 N.pl3     1 <0>        -0.3218
      6 N2          0.2435   -0.3907    0.4956 N.2       1 <0>        -0.2663
      7 C5          0.2642   -2.7653    1.2523 C.ar      1 <0>         0.6058
      8 N3          0.2364   -2.4154    2.5268 N.ar      1 <0>        -0.5273
      9 C6          0.3072   -3.3349    3.4886 C.ar      1 <0>         0.2616
     10 C7          0.4117   -4.6787    3.1333 C.ar      1 <0>        -0.2744
     11 C8          0.4377   -5.0047    1.7793 C.ar      1 <0>         0.4436
     12 N4          0.3572   -4.0308    0.8782 N.ar      1 <0>        -0.5302
     13 N5          0.5409   -6.3316    1.3757 N.am      1 <0>        -0.6545
     14 C9          0.6778   -6.6297    0.0685 C.2       1 <0>         0.5016
     15 O1          0.6176   -5.7496   -0.7636 O.2       1 <0>        -0.4655
     16 C10         0.9058   -8.0566   -0.3592 C.3       1 <0>        -0.1692
     17 C11         0.2758   -2.9343    4.9165 C.ar      1 <0>        -0.0119
     18 C12         0.3562   -3.9026    5.9162 C.ar      1 <0>        -0.1159
     19 C13         0.3268   -3.5274    7.2440 C.ar      1 <0>        -0.0823
     20 C14         0.2177   -2.1924    7.5868 C.ar      1 <0>        -0.1933
     21 C15         0.1367   -1.2221    6.5978 C.ar      1 <0>         0.1124
     22 C16         0.1718   -1.5892    5.2624 C.ar      1 <0>        -0.0918
     23 O2          0.0287    0.0889    6.9394 O.3       1 <0>        -0.2950
     24 C17         0.1304    0.4078    8.3286 C.3       1 <0>         0.0750
     25 C18        -1.2414    0.2530    8.9914 C.3       1 <0>        -0.1795
     26 C19        -1.1426    0.6721   10.4597 C.3       1 <0>        -0.0022
     27 N6         -0.7119    2.0727   10.5446 N.4       1 <0>        -0.3878
     28 C20         0.6335    2.2154    9.9753 C.3       1 <0>        -0.0012
     29 C21         0.6031    1.8557    8.4883 C.3       1 <0>        -0.1460
     30 C22        -0.6936    2.4935   11.9519 C.3       1 <0>        -0.0475
     31 C23        -0.0474   -3.3092   -1.7556 C.3       1 <0>        -0.0918
     32 H1          1.1686    2.0416   -1.0387 H         1 <0>         0.0827
     33 H2         -0.4585    1.9463   -1.7540 H         1 <0>         0.0840
     34 H3         -0.2699    2.2031   -0.0028 H         1 <0>         0.0753
     35 H4         -0.0867   -0.5758   -2.7166 H         1 <0>         0.1605
     36 H5          0.4713   -5.4480    3.8890 H         1 <0>         0.1582
     37 H6          0.5143   -7.0426    2.0350 H         1 <0>         0.4257
     38 H7          0.9300   -8.7001    0.5203 H         1 <0>         0.0801
     39 H8          0.0969   -8.3721   -1.0181 H         1 <0>         0.1041
     40 H9          1.8555   -8.1298   -0.8891 H         1 <0>         0.1041
     41 H10         0.4412   -4.9463    5.6516 H         1 <0>         0.1363
     42 H11         0.3888   -4.2786    8.0174 H         1 <0>         0.1365
     43 H12         0.1951   -1.9038    8.6273 H         1 <0>         0.1279
     44 H13         0.1140   -0.8349    4.4917 H         1 <0>         0.1510
     45 H14         0.8447   -0.2635    8.8053 H         1 <0>         0.0911
     46 H15        -1.9663    0.8864    8.4800 H         1 <0>         0.1028
     47 H16        -1.5597   -0.7877    8.9305 H         1 <0>         0.1187
     48 H17        -2.1176    0.5629   10.9347 H         1 <0>         0.1376
     49 H18        -0.4178    0.0380   10.9701 H         1 <0>         0.1309
     50 H19         0.9698    3.2456   10.0926 H         1 <0>         0.1408
     51 H20         1.3205    1.5484   10.4961 H         1 <0>         0.1319
     52 H21         1.6033    1.9605    8.0679 H         1 <0>         0.1233
     53 H22        -0.0835    2.5224    7.9665 H         1 <0>         0.1023
     54 H23         0.0003    1.8649   12.5101 H         1 <0>         0.1225
     55 H24        -0.3738    3.5335   12.0161 H         1 <0>         0.1260
     56 H25        -1.6937    2.3941   12.3738 H         1 <0>         0.1254
     57 H26         0.9489   -3.6392   -2.0500 H         1 <0>         0.0849
     58 H27        -0.4864   -4.0402   -1.0767 H         1 <0>         0.1073
     59 H28        -0.6750   -3.2133   -2.6416 H         1 <0>         0.0736
     60 H29        -1.3569    2.6537   10.0303 H         1 <0>         0.4275
@<TRIPOS>BOND
     1    1    2 1
     2    1   32 1
     3    1   33 1
     4    1   34 1
     5    2    6 2
     6    2    3 1
     7    3    4 2
     8    3   35 1
     9    4    5 1
    10    4   31 1
    11    5    6 1
    12    5    7 1
    13    7   12 ar
    14    7    8 ar
    15    8    9 ar
    16    9   10 ar
    17    9   17 1
    18   10   11 ar
    19   10   36 1
    20   11   12 ar
    21   11   13 1
    22   13   14 am
    23   13   37 1
    24   14   15 2
    25   14   16 1
    26   16   38 1
    27   16   39 1
    28   16   40 1
    29   17   22 ar
    30   17   18 ar
    31   18   19 ar
    32   18   41 1
    33   19   20 ar
    34   19   42 1
    35   20   21 ar
    36   20   43 1
    37   21   22 ar
    38   21   23 1
    39   22   44 1
    40   23   24 1
    41   24   29 1
    42   24   25 1
    43   24   45 1
    44   25   26 1
    45   25   46 1
    46   25   47 1
    47   26   27 1
    48   26   48 1
    49   26   49 1
    50   27   28 1
    51   27   30 1
    52   27   60 1
    53   28   29 1
    54   28   50 1
    55   28   51 1
    56   29   52 1
    57   29   53 1
    58   30   54 1
    59   30   55 1
    60   30   56 1
    61   31   57 1
    62   31   58 1
    63   31   59 1
