@<TRIPOS>MOLECULE
CHEMBL404864
   55    58     0     0     0
SMALL
USER_CHARGES

@<TRIPOS>ATOM
      1 C1         -0.0174    1.5029    0.0163 C.3       1 <0>        -0.0785
      2 C2          0.0028   -0.0040    0.0067 C.2       1 <0>         0.0213
      3 C3         -1.0824   -0.8047    0.0055 C.2       1 <0>        -0.2237
      4 C4         -0.6156   -2.1325   -0.0046 C.2       1 <0>        -0.1083
      5 C5          0.7438   -2.0698   -0.0090 C.2       1 <0>         0.0067
      6 O1          1.1033   -0.7711   -0.0079 O.3       1 <0>        -0.1516
      7 C6          1.6639   -3.2233   -0.0197 C.ar      1 <0>         0.4644
      8 N1          1.1612   -4.4528   -0.0311 N.ar      1 <0>        -0.5054
      9 C7          1.9607   -5.5134   -0.0409 C.ar      1 <0>         0.4403
     10 C8          3.3411   -5.3227   -0.0390 C.ar      1 <0>        -0.2593
     11 C9          3.8312   -4.0210   -0.0269 C.ar      1 <0>         0.4527
     12 N2          2.9741   -3.0063   -0.0230 N.ar      1 <0>        -0.5444
     13 N3          5.2072   -3.7839   -0.0245 N.pl3     1 <0>        -0.3329
     14 C10         5.8270   -2.6608   -0.4732 C.2       1 <0>         0.1173
     15 C11         7.1571   -2.8288   -0.2951 C.2       1 <0>        -0.2611
     16 C12         7.3603   -4.0894    0.2785 C.2       1 <0>         0.1017
     17 N4          6.1949   -4.6588    0.4463 N.2       1 <0>        -0.2846
     18 C13         8.6944   -4.6863    0.6461 C.3       1 <0>        -0.0760
     19 C14         5.1541   -1.4481   -1.0627 C.3       1 <0>        -0.0890
     20 N5          1.4270   -6.7978   -0.0524 N.am      1 <0>        -0.6481
     21 C15         0.0948   -6.9750    0.0491 C.2       1 <0>         0.5058
     22 O2         -0.6457   -6.0146    0.0576 O.2       1 <0>        -0.4321
     23 C16        -0.4747   -8.3664    0.1520 C.3       1 <0>         0.0638
     24 O3         -1.8985   -8.2925    0.2486 O.3       1 <0>        -0.2622
     25 C17        -2.5698   -9.4648    0.3488 C.ar      1 <0>         0.5111
     26 N6         -1.8893  -10.5995    0.3578 N.ar      1 <0>        -0.5779
     27 C18        -2.5134  -11.7620    0.4544 C.ar      1 <0>         0.2165
     28 C19        -3.8961  -11.7809    0.5467 C.ar      1 <0>        -0.2667
     29 C20        -4.5767  -10.5736    0.5343 C.ar      1 <0>         0.2198
     30 N7         -3.8897   -9.4469    0.4407 N.ar      1 <0>        -0.5251
     31 C21        -6.0803  -10.5445    0.6318 C.3       1 <0>        -0.1093
     32 C22        -1.7306  -13.0497    0.4634 C.3       1 <0>        -0.1090
     33 H1          1.0052    1.8801    0.0100 H         1 <0>         0.0792
     34 H2         -0.5437    1.8648   -0.8670 H         1 <0>         0.0912
     35 H3         -0.5285    1.8536    0.9129 H         1 <0>         0.0910
     36 H4         -2.1146   -0.4871    0.0115 H         1 <0>         0.1575
     37 H5         -1.2194   -3.0278   -0.0078 H         1 <0>         0.1669
     38 H6          4.0152   -6.1665   -0.0464 H         1 <0>         0.1630
     39 H7          7.9270   -2.1159   -0.5509 H         1 <0>         0.1594
     40 H8          8.9433   -4.4154    1.6721 H         1 <0>         0.0833
     41 H9          8.6432   -5.7716    0.5591 H         1 <0>         0.0771
     42 H10         9.4615   -4.3036   -0.0271 H         1 <0>         0.0840
     43 H11         4.9184   -0.7408   -0.2675 H         1 <0>         0.0887
     44 H12         5.8224   -0.9758   -1.7828 H         1 <0>         0.0835
     45 H13         4.2348   -1.7505   -1.5642 H         1 <0>         0.0787
     46 H14         2.0136   -7.5661   -0.1335 H         1 <0>         0.4274
     47 H15        -0.1999   -8.9380   -0.7345 H         1 <0>         0.1078
     48 H16        -0.0753   -8.8577    1.0393 H         1 <0>         0.1084
     49 H17        -4.4313  -12.7155    0.6262 H         1 <0>         0.1525
     50 H18        -6.3753  -10.4889    1.6796 H         1 <0>         0.0910
     51 H19        -6.4620   -9.6729    0.1001 H         1 <0>         0.0871
     52 H20        -6.4909  -11.4506    0.1863 H         1 <0>         0.0866
     53 H21        -1.4738  -13.3116    1.4899 H         1 <0>         0.0895
     54 H22        -2.3340  -13.8449    0.0257 H         1 <0>         0.0855
     55 H23        -0.8176  -12.9240   -0.1187 H         1 <0>         0.0841
@<TRIPOS>BOND
     1    1    2 1
     2    1   33 1
     3    1   34 1
     4    1   35 1
     5    2    6 1
     6    2    3 2
     7    3    4 1
     8    3   36 1
     9    4    5 2
    10    4   37 1
    11    5    6 1
    12    5    7 1
    13    7   12 ar
    14    7    8 ar
    15    8    9 ar
    16    9   10 ar
    17    9   20 1
    18   10   11 ar
    19   10   38 1
    20   11   12 ar
    21   11   13 1
    22   13   17 1
    23   13   14 1
    24   14   15 2
    25   14   19 1
    26   15   16 1
    27   15   39 1
    28   16   17 2
    29   16   18 1
    30   18   40 1
    31   18   41 1
    32   18   42 1
    33   19   43 1
    34   19   44 1
    35   19   45 1
    36   20   21 am
    37   20   46 1
    38   21   22 2
    39   21   23 1
    40   23   24 1
    41   23   47 1
    42   23   48 1
    43   24   25 1
    44   25   30 ar
    45   25   26 ar
    46   26   27 ar
    47   27   28 ar
    48   27   32 1
    49   28   29 ar
    50   28   49 1
    51   29   30 ar
    52   29   31 1
    53   31   50 1
    54   31   51 1
    55   31   52 1
    56   32   53 1
    57   32   54 1
    58   32   55 1
