@<TRIPOS>MOLECULE
CHEMBL610435
   41    43     0     0     0
SMALL
USER_CHARGES

@<TRIPOS>ATOM
      1 C1         -0.0158    1.3119    0.0093 C.ar      1 <0>         0.3696
      2 N1          1.0888    2.0360    0.0026 N.ar      1 <0>        -0.5847
      3 C2          2.2875    1.4625   -0.0119 C.ar      1 <0>         0.5071
      4 C3          2.3582    0.0588   -0.0202 C.ar      1 <0>        -0.1132
      5 C4          1.1547   -0.6659   -0.0126 C.ar      1 <0>         0.3159
      6 N2          0.0021   -0.0041    0.0020 N.ar      1 <0>        -0.5627
      7 N3          1.5110   -1.9908   -0.0227 N.pl3     1 <0>        -0.4744
      8 C5          2.8729   -2.0476   -0.0358 C.2       1 <0>         0.2498
      9 N4          3.3680   -0.8441   -0.0343 N.2       1 <0>        -0.4551
     10 C6          0.5956   -3.1347   -0.0195 C.3       1 <0>         0.3166
     11 C7          0.2093   -3.5183   -1.4652 C.3       1 <0>         0.0791
     12 H1          0.9741   -3.1842   -2.1663 H         1 <0>         0.0860
     13 C8          0.1372   -5.0615   -1.4375 C.3       1 <0>         0.0469
     14 H2          0.8663   -5.4903   -2.1250 H         1 <0>         0.0859
     15 C9          0.4884   -5.4276    0.0216 C.3       1 <0>         0.0504
     16 H3         -0.4201   -5.5508    0.6111 H         1 <0>         0.0987
     17 O1          1.2558   -4.3054    0.5091 O.3       1 <0>        -0.3472
     18 C10         1.3265   -6.7070    0.0627 C.3       1 <0>         0.0825
     19 O2          1.5418   -7.0919    1.4219 O.3       1 <0>        -0.5629
     20 O3         -1.1805   -5.5071   -1.7652 O.3       1 <0>        -0.5388
     21 O4         -1.0609   -2.9610   -1.8087 O.3       1 <0>        -0.5244
     22 N5          3.4393    2.2295   -0.0193 N.pl3     1 <0>        -0.6801
     23 C11         3.3458    3.6915   -0.0110 C.3       1 <0>         0.1471
     24 C12         4.7528    4.2926   -0.0216 C.3       1 <0>        -0.6954
     25 S1          4.6371    6.1028   -0.0114 S.o2      1 <0>         2.6453
     26 O5          5.9829    6.6547   -0.0217 O.2       1 <0>        -1.0627
     27 O6          3.9081    6.5288   -1.1959 O.2       1 <0>        -1.0578
     28 O7          3.9313    6.5167    1.1913 O.3       1 <0>        -1.0576
     29 H4         -0.9693    1.8187    0.0257 H         1 <0>         0.2048
     30 H5          3.4551   -2.9572   -0.0459 H         1 <0>         0.2195
     31 H6         -0.2954   -2.9051    0.5649 H         1 <0>         0.1220
     32 H7          0.7989   -7.5039   -0.4614 H         1 <0>         0.0653
     33 H8          2.2869   -6.5280   -0.4207 H         1 <0>         0.0610
     34 H9          2.0672   -7.8972    1.5241 H         1 <0>         0.3850
     35 H10        -1.2824   -6.4687   -1.7627 H         1 <0>         0.3849
     36 H11        -1.3526   -3.1708   -2.7065 H         1 <0>         0.3888
     37 H12         4.3085    1.7992   -0.0299 H         1 <0>         0.4166
     38 H13         2.8012    4.0258   -0.8941 H         1 <0>         0.0846
     39 H14         2.8185    4.0168    0.8858 H         1 <0>         0.0847
     40 H15         5.2974    3.9583    0.8614 H         1 <0>         0.1096
     41 H16         5.2801    3.9673   -0.9184 H         1 <0>         0.1094
@<TRIPOS>BOND
     1    1    6 ar
     2    1    2 ar
     3    1   29 1
     4    2    3 ar
     5    3    4 ar
     6    3   22 1
     7    4    9 1
     8    4    5 ar
     9    5    6 ar
    10    5    7 1
    11    7    8 1
    12    7   10 1
    13    8    9 2
    14    8   30 1
    15   10   17 1
    16   10   11 1
    17   10   31 1
    18   11   12 1
    19   11   13 1
    20   11   21 1
    21   13   14 1
    22   13   15 1
    23   13   20 1
    24   15   16 1
    25   15   17 1
    26   15   18 1
    27   18   19 1
    28   18   32 1
    29   18   33 1
    30   19   34 1
    31   20   35 1
    32   21   36 1
    33   22   23 1
    34   22   37 1
    35   23   24 1
    36   23   38 1
    37   23   39 1
    38   24   25 1
    39   24   40 1
    40   24   41 1
    41   25   26 2
    42   25   27 2
    43   25   28 1
