@<TRIPOS>MOLECULE
CHEMBL87844
   64    69     0     0     0
SMALL
USER_CHARGES

@<TRIPOS>ATOM
      1 C1         -0.0164    1.3602    0.0095 C.2       1 <0>         0.2448
      2 N1          1.2002    1.8207    0.0004 N.2       1 <0>        -0.4508
      3 C2          2.0747    0.7847   -0.0135 C.ar      1 <0>        -0.1564
      4 C3          3.4764    0.6773   -0.0279 C.ar      1 <0>         0.5439
      5 N2          4.0206   -0.5342   -0.0400 N.ar      1 <0>        -0.6237
      6 C4          3.2653   -1.6255   -0.0386 C.ar      1 <0>         0.6304
      7 N3          1.9436   -1.5695   -0.0253 N.ar      1 <0>        -0.6048
      8 C5          1.3163   -0.3973   -0.0126 C.ar      1 <0>         0.3609
      9 N4          0.0021   -0.0041    0.0020 N.pl3     1 <0>        -0.4754
     10 C6         -1.1670   -0.8870    0.0084 C.3       1 <0>         0.3164
     11 C7         -1.5547   -1.2553    1.4577 C.3       1 <0>         0.0796
     12 H1         -1.1961   -0.4968    2.1535 H         1 <0>         0.0854
     13 C8         -3.0994   -1.2843    1.4372 C.3       1 <0>         0.0468
     14 H2         -3.5045   -0.5401    2.1230 H         1 <0>         0.0864
     15 C9         -3.4622   -0.9300   -0.0220 C.3       1 <0>         0.0506
     16 H3         -3.6135   -1.8375   -0.6064 H         1 <0>         0.0989
     17 O1         -2.3211   -0.1968   -0.5183 O.3       1 <0>        -0.3467
     18 C10        -4.7178   -0.0566   -0.0616 C.3       1 <0>         0.0822
     19 O2         -5.1027    0.1628   -1.4202 O.3       1 <0>        -0.5634
     20 O3         -3.5803   -2.5873    1.7734 O.3       1 <0>        -0.5393
     21 O4         -1.0317   -2.5390    1.8051 O.3       1 <0>        -0.5259
     22 N5          3.8820   -2.8657   -0.0520 N.pl3     1 <0>        -0.6952
     23 C11         5.3441   -2.9566   -0.0674 C.3       1 <0>         0.1374
     24 C12         5.7635   -4.4279   -0.0802 C.3       1 <0>        -0.1245
     25 C13         7.2905   -4.5228   -0.0962 C.3       1 <0>        -0.0451
     26 C14         7.8316   -3.8274   -1.3470 C.3       1 <0>        -0.1058
     27 C15         9.3586   -3.9223   -1.3630 C.3       1 <0>        -0.0862
     28 C16         9.7780   -5.3936   -1.3758 C.3       1 <0>        -0.1086
     29 C17         9.2369   -6.0890   -0.1250 C.3       1 <0>        -0.0860
     30 C18         7.7100   -5.9941   -0.1090 C.3       1 <0>        -0.1013
     31 C19         9.8034   -5.4080    1.1225 C.3       1 <0>        -0.1086
     32 C20         9.3839   -3.9367    1.1353 C.3       1 <0>        -0.0862
     33 C21         9.9250   -3.2413   -0.1155 C.3       1 <0>        -0.1083
     34 C22         7.8570   -3.8418    1.1513 C.3       1 <0>        -0.1056
     35 N6          4.2719    1.8093   -0.0299 N.pl3     1 <0>        -0.8168
     36 H4         -0.9091    1.9679    0.0254 H         1 <0>         0.2189
     37 H5         -0.9651   -1.7869   -0.5725 H         1 <0>         0.1206
     38 H6         -5.5268   -0.5591    0.4686 H         1 <0>         0.0662
     39 H7         -4.5097    0.9007    0.4162 H         1 <0>         0.0610
     40 H8         -5.8934    0.7101   -1.5215 H         1 <0>         0.3863
     41 H9         -4.5444   -2.6623    1.7757 H         1 <0>         0.3867
     42 H10        -1.2454   -2.8204    2.7052 H         1 <0>         0.3892
     43 H11         3.3458   -3.6740   -0.0513 H         1 <0>         0.4139
     44 H12         5.7296   -2.4611   -0.9585 H         1 <0>         0.0693
     45 H13         5.7477   -2.4714    0.8213 H         1 <0>         0.0693
     46 H14         5.3781   -4.9233    0.8109 H         1 <0>         0.0704
     47 H15         5.3600   -4.9131   -0.9689 H         1 <0>         0.0704
     48 H16         7.4281   -4.3125   -2.2358 H         1 <0>         0.0618
     49 H17         7.5328   -2.7792   -1.3379 H         1 <0>         0.0670
     50 H18         9.7441   -3.4268   -2.2541 H         1 <0>         0.0684
     51 H19         9.3745   -5.8788   -2.2646 H         1 <0>         0.0606
     52 H20        10.8659   -5.4612   -1.3872 H         1 <0>         0.0604
     53 H21         9.5357   -7.1372   -0.1341 H         1 <0>         0.0683
     54 H22         7.3245   -6.4896    0.7821 H         1 <0>         0.0621
     55 H23         7.3064   -6.4793   -0.9977 H         1 <0>         0.0621
     56 H24         9.4179   -5.9035    2.0136 H         1 <0>         0.0605
     57 H25        10.8912   -5.4757    1.1111 H         1 <0>         0.0604
     58 H26         9.7875   -3.4516    2.0240 H         1 <0>         0.0683
     59 H27        11.0129   -3.3089   -0.1270 H         1 <0>         0.0601
     60 H28         9.6262   -2.1931   -0.1065 H         1 <0>         0.0618
     61 H29         7.5581   -2.7936    1.1604 H         1 <0>         0.0669
     62 H30         7.4715   -4.3372    2.0424 H         1 <0>         0.0617
     63 H31         3.8635    2.6891   -0.0213 H         1 <0>         0.4197
     64 H32         5.2381    1.7231   -0.0398 H         1 <0>         0.4089
@<TRIPOS>BOND
     1    1    9 1
     2    1    2 2
     3    1   36 1
     4    2    3 1
     5    3    8 ar
     6    3    4 ar
     7    4    5 ar
     8    4   35 1
     9    5    6 ar
    10    6    7 ar
    11    6   22 1
    12    7    8 ar
    13    8    9 1
    14    9   10 1
    15   10   17 1
    16   10   11 1
    17   10   37 1
    18   11   12 1
    19   11   13 1
    20   11   21 1
    21   13   14 1
    22   13   15 1
    23   13   20 1
    24   15   16 1
    25   15   17 1
    26   15   18 1
    27   18   19 1
    28   18   38 1
    29   18   39 1
    30   19   40 1
    31   20   41 1
    32   21   42 1
    33   22   23 1
    34   22   43 1
    35   23   24 1
    36   23   44 1
    37   23   45 1
    38   24   25 1
    39   24   46 1
    40   24   47 1
    41   25   30 1
    42   25   34 1
    43   25   26 1
    44   26   27 1
    45   26   48 1
    46   26   49 1
    47   27   33 1
    48   27   28 1
    49   27   50 1
    50   28   29 1
    51   28   51 1
    52   28   52 1
    53   29   30 1
    54   29   31 1
    55   29   53 1
    56   30   54 1
    57   30   55 1
    58   31   32 1
    59   31   56 1
    60   31   57 1
    61   32   33 1
    62   32   34 1
    63   32   58 1
    64   33   59 1
    65   33   60 1
    66   34   61 1
    67   34   62 1
    68   35   63 1
    69   35   64 1
