@<TRIPOS>MOLECULE
CHEMBL606079
   56    61     0     0     0
SMALL
USER_CHARGES

@<TRIPOS>ATOM
      1 C1         -0.0166    1.3750    0.0096 C.ar      1 <0>        -0.1149
      2 C2          1.1687    2.0883    0.0021 C.ar      1 <0>        -0.1115
      3 C3          2.3801    1.4204   -0.0135 C.ar      1 <0>        -0.0945
      4 C4          2.4083    0.0417   -0.0212 C.ar      1 <0>        -0.0847
      5 C5          1.2210   -0.6848   -0.0133 C.ar      1 <0>        -0.0517
      6 C6          0.0021   -0.0041    0.0020 C.ar      1 <0>        -0.0959
      7 C7          1.5297   -2.1362   -0.0247 C.ar      1 <0>        -0.0544
      8 C8          0.6935   -3.2543   -0.0227 C.ar      1 <0>        -0.0950
      9 C9          1.2378   -4.5215   -0.0354 C.ar      1 <0>        -0.1163
     10 C10         2.6107   -4.6904   -0.0503 C.ar      1 <0>        -0.1097
     11 C11         3.4454   -3.5871   -0.0524 C.ar      1 <0>        -0.0949
     12 C12         2.9100   -2.3164   -0.0397 C.ar      1 <0>        -0.0899
     13 C13         3.5470   -0.9484   -0.0383 C.3       1 <0>        -0.0205
     14 C14         4.3909   -0.7589   -1.3004 C.3       1 <0>         0.1480
     15 N1          5.5574   -1.6435   -1.2453 N.pl3     1 <0>        -0.6934
     16 C15         6.4720   -1.6481   -2.2838 C.ar      1 <0>         0.5081
     17 C16         7.5937   -2.4943   -2.2504 C.ar      1 <0>        -0.1065
     18 C17         8.4872   -2.4543   -3.3338 C.ar      1 <0>         0.3140
     19 N2          8.2418   -1.6251   -4.3433 N.ar      1 <0>        -0.5503
     20 C18         7.1776   -0.8506   -4.3317 C.ar      1 <0>         0.3653
     21 N3          6.3073   -0.8565   -3.3383 N.ar      1 <0>        -0.5864
     22 N4          9.4727   -3.3641   -3.0451 N.pl3     1 <0>        -0.4711
     23 C19         9.1738   -3.9208   -1.8373 C.2       1 <0>         0.2623
     24 N5          8.0710   -3.4092   -1.3727 N.2       1 <0>        -0.4604
     25 C20        10.6333   -3.6796   -3.8817 C.3       1 <0>         0.3140
     26 C21        11.8061   -2.7288   -3.5550 C.3       1 <0>         0.0796
     27 H1         11.7080   -2.3348   -2.5434 H         1 <0>         0.0854
     28 C22        13.0591   -3.6258   -3.6674 C.3       1 <0>         0.0471
     29 H2         13.5805   -3.6753   -2.7115 H         1 <0>         0.0870
     30 C23        12.4950   -5.0125   -4.0488 C.3       1 <0>         0.0506
     31 H3         12.5185   -5.1474   -5.1301 H         1 <0>         0.1001
     32 O1         11.1314   -4.9996   -3.5732 O.3       1 <0>        -0.3471
     33 C24        13.2923   -6.1203   -3.3574 C.3       1 <0>         0.0821
     34 O2         12.8312   -7.3940   -3.8125 O.3       1 <0>        -0.5634
     35 O3         13.9330   -3.1397   -4.6883 O.3       1 <0>        -0.5388
     36 O4         11.8644   -1.6614   -4.5032 O.3       1 <0>        -0.5257
     37 H4         -0.9603    1.9001    0.0260 H         1 <0>         0.1278
     38 H5          1.1483    3.1681    0.0081 H         1 <0>         0.1291
     39 H6          3.3044    1.9791   -0.0200 H         1 <0>         0.1267
     40 H7         -0.9256   -0.5570    0.0076 H         1 <0>         0.1235
     41 H8         -0.3789   -3.1269   -0.0107 H         1 <0>         0.1235
     42 H9          0.5895   -5.3854   -0.0335 H         1 <0>         0.1275
     43 H10         3.0316   -5.6850   -0.0598 H         1 <0>         0.1281
     44 H11         4.5170   -3.7211   -0.0640 H         1 <0>         0.1220
     45 H12         4.1662   -0.8236    0.8500 H         1 <0>         0.1082
     46 H13         3.7917   -1.0020   -2.1780 H         1 <0>         0.0772
     47 H14         4.7233    0.2772   -1.3631 H         1 <0>         0.0800
     48 H15         5.6886   -2.2260   -0.4808 H         1 <0>         0.4164
     49 H16         7.0079   -0.1881   -5.1676 H         1 <0>         0.2050
     50 H17         9.7649   -4.6752   -1.3394 H         1 <0>         0.2224
     51 H18        10.3694   -3.6107   -4.9370 H         1 <0>         0.1234
     52 H19        14.3500   -6.0101   -3.5966 H         1 <0>         0.0670
     53 H20        13.1543   -6.0482   -2.2786 H         1 <0>         0.0609
     54 H21        13.2934   -8.1446   -3.4149 H         1 <0>         0.3867
     55 H22        14.7363   -3.6659   -4.8018 H         1 <0>         0.3873
     56 H23        12.5831   -1.0339   -4.3455 H         1 <0>         0.3907
@<TRIPOS>BOND
     1    1    6 ar
     2    1    2 ar
     3    1   37 1
     4    2    3 ar
     5    2   38 1
     6    3    4 ar
     7    3   39 1
     8    4   13 1
     9    4    5 ar
    10    5    6 ar
    11    5    7 1
    12    6   40 1
    13    7   12 ar
    14    7    8 ar
    15    8    9 ar
    16    8   41 1
    17    9   10 ar
    18    9   42 1
    19   10   11 ar
    20   10   43 1
    21   11   12 ar
    22   11   44 1
    23   12   13 1
    24   13   14 1
    25   13   45 1
    26   14   15 1
    27   14   46 1
    28   14   47 1
    29   15   16 1
    30   15   48 1
    31   16   21 ar
    32   16   17 ar
    33   17   24 1
    34   17   18 ar
    35   18   19 ar
    36   18   22 1
    37   19   20 ar
    38   20   21 ar
    39   20   49 1
    40   22   23 1
    41   22   25 1
    42   23   24 2
    43   23   50 1
    44   25   32 1
    45   25   26 1
    46   25   51 1
    47   26   27 1
    48   26   28 1
    49   26   36 1
    50   28   29 1
    51   28   30 1
    52   28   35 1
    53   30   31 1
    54   30   32 1
    55   30   33 1
    56   33   34 1
    57   33   52 1
    58   33   53 1
    59   34   54 1
    60   35   55 1
    61   36   56 1
