@<TRIPOS>MOLECULE
CHEMBL360166
   55    59     0     0     0
SMALL
USER_CHARGES

@<TRIPOS>ATOM
      1 C1         -8.4496   -6.7865   -4.6458 C.3       1 <0>        -0.1027
      2 C2         -7.6085   -5.9554   -3.7116 C.2       1 <0>         0.1109
      3 C3         -6.4870   -6.3596   -3.0848 C.2       1 <0>        -0.2930
      4 C4         -6.0089   -5.2881   -2.3092 C.2       1 <0>         0.0501
      5 N1         -6.8191   -4.2802   -2.4693 N.2       1 <0>        -0.2908
      6 O1         -7.8423   -4.6811   -3.3626 O.3       1 <0>        -0.0477
      7 C5         -4.7753   -5.3033   -1.4438 C.3       1 <0>         0.0682
      8 N2         -3.6402   -4.7569   -2.1995 N.4       1 <0>        -0.3819
      9 C6         -3.3480   -5.6283   -3.3576 C.3       1 <0>        -0.0104
     10 C7         -1.8052   -5.6005   -3.4942 C.3       1 <0>        -0.1385
     11 C8         -1.3596   -5.5727   -2.0084 C.3       1 <0>        -0.1406
     12 C9         -2.4464   -4.7082   -1.3356 C.3       1 <0>         0.0038
     13 H1         -2.0975   -3.6797   -1.2430 H         1 <0>         0.1419
     14 C10        -2.7803   -5.2742    0.0461 C.3       1 <0>         0.1021
     15 N3         -1.6271   -5.1069    0.9340 N.pl3     1 <0>        -0.5854
     16 C11        -1.4131   -3.8328    1.6247 C.3       1 <0>         0.0809
     17 C12        -0.7401   -6.1523    1.1203 C.2       1 <0>         0.5107
     18 C13         0.3595   -5.9913    1.9752 C.2       1 <0>        -0.3664
     19 C14         1.2256   -7.0347    2.1480 C.2       1 <0>         0.5258
     20 N4          0.9936   -8.2058    1.4812 N.pl3     1 <0>        -0.3809
     21 C15        -0.0893   -8.3268    0.6554 C.2       1 <0>         0.5270
     22 N5         -0.9359   -7.3026    0.4949 N.2       1 <0>        -0.5702
     23 N6         -0.0667   -9.5528    0.1471 N.2       1 <0>        -0.5206
     24 C16         0.9932  -10.2169    0.6207 C.2       1 <0>         0.3683
     25 N7          1.6690   -9.4328    1.4391 N.2       1 <0>        -0.3248
     26 C17         1.3509  -11.6101    0.2814 C.2       1 <0>         0.0286
     27 C18         0.6667  -12.4262   -0.5635 C.2       1 <0>        -0.1223
     28 C19         1.3579  -13.6537   -0.5906 C.2       1 <0>        -0.2206
     29 C20         2.4189  -13.5275    0.2306 C.2       1 <0>        -0.0004
     30 O2          2.4148  -12.2898    0.7511 O.3       1 <0>        -0.1601
     31 N8          2.3165   -6.9081    2.9813 N.pl3     1 <0>        -0.8220
     32 H2         -9.2907   -6.1924   -5.0033 H         1 <0>         0.0942
     33 H3         -7.8436   -7.1053   -5.4939 H         1 <0>         0.1069
     34 H4         -8.8230   -7.6629   -4.1161 H         1 <0>         0.1080
     35 H5         -6.0337   -7.3367   -3.1638 H         1 <0>         0.1716
     36 H6         -4.9470   -4.6950   -0.5557 H         1 <0>         0.1533
     37 H7         -4.5536   -6.3278   -1.1451 H         1 <0>         0.1621
     38 H8         -3.6937   -6.6439   -3.1651 H         1 <0>         0.1374
     39 H9         -3.8159   -5.2315   -4.2586 H         1 <0>         0.1333
     40 H10        -1.4413   -6.4981   -3.9943 H         1 <0>         0.1195
     41 H11        -1.4757   -4.7030   -4.0176 H         1 <0>         0.0962
     42 H12        -1.3531   -6.5788   -1.5891 H         1 <0>         0.1249
     43 H13        -0.3795   -5.1062   -1.9087 H         1 <0>         0.1052
     44 H14        -3.6372   -4.7421    0.4593 H         1 <0>         0.1003
     45 H15        -3.0193   -6.3339   -0.0434 H         1 <0>         0.1222
     46 H16        -1.9587   -3.8349    2.5683 H         1 <0>         0.0727
     47 H17        -0.3491   -3.6999    1.8205 H         1 <0>         0.0879
     48 H18        -1.7722   -3.0156    0.9991 H         1 <0>         0.0787
     49 H19         0.5203   -5.0556    2.4899 H         1 <0>         0.1686
     50 H20        -0.2330  -12.1812   -1.1084 H         1 <0>         0.1622
     51 H21         1.0881  -14.5302   -1.1610 H         1 <0>         0.1610
     52 H22         3.1529  -14.2934    0.4333 H         1 <0>         0.2153
     53 H23         2.4741   -6.0738    3.4504 H         1 <0>         0.4276
     54 H24         2.9263   -7.6532    3.0985 H         1 <0>         0.4227
     55 H25        -3.8629   -3.8278   -2.5237 H         1 <0>         0.4292
@<TRIPOS>BOND
     1    1    2 1
     2    1   32 1
     3    1   33 1
     4    1   34 1
     5    2    6 1
     6    2    3 2
     7    3    4 1
     8    3   35 1
     9    4    5 2
    10    4    7 1
    11    5    6 1
    12    7    8 1
    13    7   36 1
    14    7   37 1
    15    8   12 1
    16    8    9 1
    17    8   55 1
    18    9   10 1
    19    9   38 1
    20    9   39 1
    21   10   11 1
    22   10   40 1
    23   10   41 1
    24   11   12 1
    25   11   42 1
    26   11   43 1
    27   12   13 1
    28   12   14 1
    29   14   15 1
    30   14   44 1
    31   14   45 1
    32   15   16 1
    33   15   17 1
    34   16   46 1
    35   16   47 1
    36   16   48 1
    37   17   22 2
    38   17   18 1
    39   18   19 2
    40   18   49 1
    41   19   20 1
    42   19   31 1
    43   20   25 1
    44   20   21 1
    45   21   22 1
    46   21   23 2
    47   23   24 1
    48   24   25 2
    49   24   26 1
    50   26   30 1
    51   26   27 2
    52   27   28 1
    53   27   50 1
    54   28   29 2
    55   28   51 1
    56   29   30 1
    57   29   52 1
    58   31   53 1
    59   31   54 1
