@<TRIPOS>MOLECULE
CHEMBL112773
   44    47     0     0     0
SMALL
USER_CHARGES

@<TRIPOS>ATOM
      1 C1          4.8358   -0.1145    3.1373 C.3       1 <0>         0.0320
      2 O1          3.9525    0.0401    2.0247 O.3       1 <0>        -0.3850
      3 C2          2.6961   -0.6218    2.1838 C.3       1 <0>         0.0433
      4 C3          1.8362   -0.3897    0.9397 C.3       1 <0>         0.1412
      5 H1          0.8406   -0.8053    1.0946 H         1 <0>         0.0933
      6 C4          1.7341    1.1221    0.6469 C.3       1 <0>        -0.1268
      7 C5          1.7979    1.1810   -0.9023 C.3       1 <0>        -0.1319
      8 C6          2.7841    0.0286   -1.2170 C.3       1 <0>         0.0998
      9 N1          2.4660   -1.0223   -0.2285 N.am      1 <0>        -0.5986
     10 C7          2.7124   -2.3397   -0.3708 C.2       1 <0>         0.5844
     11 O2          2.4903   -3.1024    0.5492 O.2       1 <0>        -0.5187
     12 C8          3.2530   -2.8572   -1.6461 C.2       1 <0>         0.0041
     13 C9          2.3983   -3.4699   -2.5866 C.2       1 <0>        -0.2334
     14 C10         2.9040   -3.9428   -3.7575 C.2       1 <0>         0.4586
     15 N2          4.2341   -3.8326   -4.0377 N.pl3     1 <0>        -0.3167
     16 C11         5.0929   -3.2445   -3.1498 C.2       1 <0>         0.3357
     17 C12         4.6049   -2.7404   -1.9335 C.2       1 <0>        -0.1369
     18 N3          6.3091   -3.2780   -3.6837 N.2       1 <0>        -0.5206
     19 C13         6.2575   -3.8659   -4.8796 C.2       1 <0>         0.3440
     20 N4          5.0106   -4.2219   -5.1394 N.2       1 <0>        -0.3242
     21 C14         7.4128   -4.0853   -5.7745 C.2       1 <0>         0.0685
     22 C15         8.6996   -3.7299   -5.5174 C.2       1 <0>        -0.1280
     23 C16         9.4614   -4.1270   -6.6340 C.2       1 <0>        -0.1559
     24 C17         8.6100   -4.6998   -7.5095 C.2       1 <0>        -0.0097
     25 O3          7.3745   -4.6775   -6.9843 O.3       1 <0>        -0.1443
     26 Br1         9.0795   -5.4206   -9.1935 Br        1 <0>         0.0659
     27 N5          2.0586   -4.5434   -4.6753 N.pl3     1 <0>        -0.8433
     28 H2          5.0469   -1.1730    3.2893 H         1 <0>         0.0410
     29 H3          5.7667    0.4168    2.9388 H         1 <0>         0.0863
     30 H4          4.3677    0.2948    4.0325 H         1 <0>         0.0408
     31 H5          2.8628   -1.6908    2.3160 H         1 <0>         0.0686
     32 H6          2.1836   -0.2230    3.0592 H         1 <0>         0.0590
     33 H7          0.7872    1.5220    1.0094 H         1 <0>         0.0833
     34 H8          2.5745    1.6580    1.0881 H         1 <0>         0.0922
     35 H9          0.8190    0.9883   -1.3412 H         1 <0>         0.0767
     36 H10         2.1946    2.1382   -1.2408 H         1 <0>         0.0880
     37 H11         2.6228   -0.3430   -2.2290 H         1 <0>         0.0766
     38 H12         3.8133    0.3664   -1.0956 H         1 <0>         0.0800
     39 H13         1.3430   -3.5638   -2.3768 H         1 <0>         0.1633
     40 H14         5.2748   -2.2706   -1.2286 H         1 <0>         0.1630
     41 H15         9.0668   -3.2379   -4.6289 H         1 <0>         0.1736
     42 H16        10.5256   -3.9973   -6.7643 H         1 <0>         0.1713
     43 H17         1.1116   -4.6249   -4.4815 H         1 <0>         0.4234
     44 H18         2.4133   -4.8825   -5.5120 H         1 <0>         0.4160
@<TRIPOS>BOND
     1    1    2 1
     2    1   28 1
     3    1   29 1
     4    1   30 1
     5    2    3 1
     6    3    4 1
     7    3   31 1
     8    3   32 1
     9    4    5 1
    10    4    9 1
    11    4    6 1
    12    6    7 1
    13    6   33 1
    14    6   34 1
    15    7    8 1
    16    7   35 1
    17    7   36 1
    18    8    9 1
    19    8   37 1
    20    8   38 1
    21    9   10 am
    22   10   11 2
    23   10   12 1
    24   12   17 2
    25   12   13 1
    26   13   14 2
    27   13   39 1
    28   14   15 1
    29   14   27 1
    30   15   20 1
    31   15   16 1
    32   16   17 1
    33   16   18 2
    34   17   40 1
    35   18   19 1
    36   19   20 2
    37   19   21 1
    38   21   25 1
    39   21   22 2
    40   22   23 1
    41   22   41 1
    42   23   24 2
    43   23   42 1
    44   24   25 1
    45   24   26 1
    46   27   43 1
    47   27   44 1
