@<TRIPOS>MOLECULE
CHEMBL1094547
   57    62     0     0     0
SMALL
USER_CHARGES

@<TRIPOS>ATOM
      1 C1         -0.0129    1.3859    0.0208 C.ar      1 <0>        -0.0891
      2 C2          1.1706    2.1024    0.0300 C.ar      1 <0>        -0.1328
      3 C3          2.3812    1.4405    0.0202 C.ar      1 <0>        -0.0647
      4 C4          2.4102    0.0462    0.0010 C.ar      1 <0>        -0.0869
      5 C5          1.2138   -0.6705   -0.0082 C.ar      1 <0>        -0.0592
      6 C6          0.0094    0.0028    0.0017 C.ar      1 <0>        -0.1269
      7 C7          3.7065   -0.6705   -0.0101 C.ar      1 <0>         0.3463
      8 C8          3.8547   -1.8943    0.6601 C.ar      1 <0>        -0.3416
      9 C9          5.1072   -2.5377    0.6205 C.ar      1 <0>         0.2930
     10 N1          6.0979   -1.9649   -0.0468 N.ar      1 <0>        -0.5628
     11 C10         5.9177   -0.8044   -0.6691 C.ar      1 <0>         0.6029
     12 N2          4.7562   -0.1696   -0.6616 N.ar      1 <0>        -0.5647
     13 N3          6.9773   -0.2444   -1.3519 N.pl3     1 <0>        -0.8028
     14 C11         5.0116   -3.8011    1.3954 C.ar      1 <0>         0.0228
     15 C12         5.9401   -4.7913    1.6684 C.ar      1 <0>        -0.1425
     16 C13         5.5750   -5.8959    2.4403 C.ar      1 <0>         0.2267
     17 C14         4.2819   -6.0059    2.9363 C.ar      1 <0>        -0.1809
     18 C15         3.3491   -5.0223    2.6681 C.ar      1 <0>         0.0020
     19 C16         3.7034   -3.9175    1.9002 C.ar      1 <0>        -0.1868
     20 C17         2.9386   -2.7290    1.4565 C.2       1 <0>         0.4627
     21 O1          1.7733   -2.4875    1.7036 O.2       1 <0>        -0.4101
     22 N4          6.5081   -6.8890    2.7129 N.pl3     1 <0>        -0.6370
     23 C18         7.8465   -6.8575    2.1030 C.3       1 <0>         0.0946
     24 C19         8.8897   -7.0334    3.2114 C.3       1 <0>        -0.0228
     25 N5          8.5971   -8.2574    3.9678 N.4       1 <0>        -0.3806
     26 C20         7.3074   -8.1232    4.6569 C.3       1 <0>        -0.0226
     27 C21         6.1877   -7.9983    3.6245 C.3       1 <0>         0.0969
     28 C22         9.6581   -8.4843    4.9582 C.3       1 <0>         0.0265
     29 C23         9.4217   -9.8224    5.6614 C.3       1 <0>        -0.2132
     30 C24         9.1386   -9.7901    7.1646 C.3       1 <0>        -0.1682
     31 C25        10.4872  -10.2983    6.6509 C.3       1 <0>        -0.1483
     32 H1         -0.9580    1.9084    0.0331 H         1 <0>         0.1285
     33 H2          1.1468    3.1821    0.0446 H         1 <0>         0.1300
     34 H3          3.3044    2.0009    0.0271 H         1 <0>         0.1295
     35 H4          1.2299   -1.7503   -0.0234 H         1 <0>         0.1340
     36 H5         -0.9177   -0.5511   -0.0050 H         1 <0>         0.1301
     37 H6          7.8350   -0.6970   -1.3719 H         1 <0>         0.4191
     38 H7          6.8648    0.6020   -1.8121 H         1 <0>         0.4232
     39 H8          6.9461   -4.7094    1.2842 H         1 <0>         0.1391
     40 H9          4.0050   -6.8626    3.5329 H         1 <0>         0.1392
     41 H10         2.3447   -5.1111    3.0549 H         1 <0>         0.1463
     42 H11         7.9390   -7.6687    1.3808 H         1 <0>         0.0940
     43 H12         7.9994   -5.9003    1.6046 H         1 <0>         0.1304
     44 H13         9.8823   -7.1090    2.7675 H         1 <0>         0.1434
     45 H14         8.8557   -6.1748    3.8820 H         1 <0>         0.1341
     46 H15         7.1341   -9.0019    5.2782 H         1 <0>         0.1445
     47 H16         7.3213   -7.2317    5.2838 H         1 <0>         0.1331
     48 H17         5.2445   -7.7949    4.1315 H         1 <0>         0.1300
     49 H18         6.1099   -8.9266    3.0585 H         1 <0>         0.0924
     50 H19        10.6255   -8.5034    4.4564 H         1 <0>         0.1343
     51 H20         9.6463   -7.6801    5.6939 H         1 <0>         0.1292
     52 H21         8.9105  -10.5810    5.0688 H         1 <0>         0.1252
     53 H22         9.1207   -8.8156    7.6526 H         1 <0>         0.1059
     54 H23         8.4408  -10.5276    7.5613 H         1 <0>         0.1107
     55 H24        10.6766  -11.3701    6.7096 H         1 <0>         0.1128
     56 H25        11.3565   -9.6581    6.8010 H         1 <0>         0.1078
     57 H26         8.5585   -9.0418    3.3343 H         1 <0>         0.4234
@<TRIPOS>BOND
     1    1    6 ar
     2    1    2 ar
     3    1   32 1
     4    2    3 ar
     5    2   33 1
     6    3    4 ar
     7    3   34 1
     8    4    5 ar
     9    4    7 1
    10    5    6 ar
    11    5   35 1
    12    6   36 1
    13    7   12 ar
    14    7    8 ar
    15    8   20 1
    16    8    9 ar
    17    9   10 ar
    18    9   14 1
    19   10   11 ar
    20   11   12 ar
    21   11   13 1
    22   13   37 1
    23   13   38 1
    24   14   19 ar
    25   14   15 ar
    26   15   16 ar
    27   15   39 1
    28   16   17 ar
    29   16   22 1
    30   17   18 ar
    31   17   40 1
    32   18   19 ar
    33   18   41 1
    34   19   20 1
    35   20   21 2
    36   22   27 1
    37   22   23 1
    38   23   24 1
    39   23   42 1
    40   23   43 1
    41   24   25 1
    42   24   44 1
    43   24   45 1
    44   25   26 1
    45   25   28 1
    46   25   57 1
    47   26   27 1
    48   26   46 1
    49   26   47 1
    50   27   48 1
    51   27   49 1
    52   28   29 1
    53   28   50 1
    54   28   51 1
    55   29   31 1
    56   29   30 1
    57   29   52 1
    58   30   31 1
    59   30   53 1
    60   30   54 1
    61   31   55 1
    62   31   56 1
