@<TRIPOS>MOLECULE
CHEMBL373560
   57    62     0     0     0
SMALL
USER_CHARGES

@<TRIPOS>ATOM
      1 C1         -0.0162    1.3433    0.0094 C.2       1 <0>        -0.2202
      2 C2          1.3252    1.7744   -0.0011 C.2       1 <0>        -0.1188
      3 C3          2.0963    0.6547   -0.0144 C.2       1 <0>         0.0224
      4 O1          1.2798   -0.4167   -0.0124 O.3       1 <0>        -0.1595
      5 C4          0.0021   -0.0041    0.0020 C.2       1 <0>         0.0052
      6 C5          3.5735    0.6192   -0.0292 C.2       1 <0>         0.3469
      7 N1          4.3782    1.6975   -0.0257 N.2       1 <0>        -0.4775
      8 C6          5.6284    1.3133   -0.0438 C.2       1 <0>         0.4919
      9 N2          6.7827    2.0136   -0.0426 N.2       1 <0>        -0.5222
     10 C7          7.9149    1.3544   -0.2245 C.2       1 <0>         0.6668
     11 N3          7.9251    0.0030   -0.4737 N.pl3     1 <0>        -0.6586
     12 C8          6.8335   -0.7612   -0.0614 C.2       1 <0>         0.6247
     13 N4          5.6350   -0.0666   -0.0535 N.pl3     1 <0>        -0.4269
     14 N5          4.3125   -0.4776   -0.0421 N.2       1 <0>        -0.2683
     15 N6          6.9320   -2.0133    0.2840 N.2       1 <0>        -0.6625
     16 N7          9.1029    2.0335   -0.1638 N.pl3     1 <0>        -0.6012
     17 C9         10.3831    1.3378   -0.3666 C.3       1 <0>         0.0859
     18 C10        11.3212    1.6998    0.7895 C.3       1 <0>        -0.0193
     19 N8         11.4333    3.1606    0.8886 N.4       1 <0>        -0.3770
     20 C11        11.8867    3.7088   -0.3955 C.3       1 <0>        -0.0181
     21 C12        12.1033    5.2177   -0.2605 C.3       1 <0>        -0.1312
     22 H1         12.8581    5.4102    0.5020 H         1 <0>         0.1128
     23 C13        10.7853    5.8833    0.1454 C.3       1 <0>        -0.1481
     24 C14        10.2818    5.2487    1.4450 C.3       1 <0>        -0.1351
     25 C15        10.1307    3.7388    1.2422 C.3       1 <0>         0.0113
     26 H2          9.7668    3.2820    2.1626 H         1 <0>         0.1546
     27 C16         9.1345    3.4804    0.1002 C.3       1 <0>         0.1099
     28 C17        12.5733    5.7882   -1.6000 C.3       1 <0>         0.1034
     29 N9         12.8947    7.2085   -1.4401 N.pl3     1 <0>        -0.4171
     30 C18        12.0318    8.2593   -1.5982 C.2       1 <0>         0.0207
     31 C19        12.7364    9.3815   -1.3579 C.2       1 <0>         0.0170
     32 N10        13.9951    9.0257   -1.0612 N.pl3     1 <0>        -0.4699
     33 C20        14.0961    7.7253   -1.1036 C.cat     1 <0>         0.2930
     34 H3         -0.8931    1.9736    0.0252 H         1 <0>         0.1630
     35 H4          1.6735    2.7967    0.0011 H         1 <0>         0.1629
     36 H5         -0.8667   -0.6456    0.0069 H         1 <0>         0.2174
     37 H6          6.1427   -2.5028    0.5637 H         1 <0>         0.3877
     38 H7         10.2166    0.2607   -0.3797 H         1 <0>         0.1312
     39 H8         10.8264    1.6544   -1.3108 H         1 <0>         0.1108
     40 H9         10.9197    1.3020    1.7215 H         1 <0>         0.1465
     41 H10        12.3065    1.2713    0.6059 H         1 <0>         0.1570
     42 H11        12.8236    3.2318   -0.6834 H         1 <0>         0.1466
     43 H12        11.1324    3.5171   -1.1587 H         1 <0>         0.1404
     44 H13        10.9483    6.9499    0.3000 H         1 <0>         0.0974
     45 H14        10.0457    5.7371   -0.6418 H         1 <0>         0.0973
     46 H15        10.9980    5.4389    2.2444 H         1 <0>         0.0991
     47 H16         9.3161    5.6790    1.7102 H         1 <0>         0.1286
     48 H17         9.4557    4.0095   -0.7970 H         1 <0>         0.1015
     49 H18         8.1417    3.8209    0.3943 H         1 <0>         0.1554
     50 H19        13.4609    5.2500   -1.9327 H         1 <0>         0.1333
     51 H20        11.7815    5.6759   -2.3407 H         1 <0>         0.1347
     52 H21        10.9869    8.1998   -1.8647 H         1 <0>         0.2259
     53 H22        12.3547   10.3911   -1.3971 H         1 <0>         0.2282
     54 H23        14.9926    7.1568   -0.9050 H         1 <0>         0.2619
     55 H24         8.6760   -0.4109   -0.9272 H         1 <0>         0.4368
     56 H25        12.1078    3.3963    1.6011 H         1 <0>         0.4311
     57 H26        14.7157    9.6381   -0.8454 H         1 <0>         0.4705
@<TRIPOS>BOND
     1    1    5 2
     2    1    2 1
     3    1   34 1
     4    2    3 2
     5    2   35 1
     6    3    4 1
     7    3    6 1
     8    4    5 1
     9    5   36 1
    10    6   14 2
    11    6    7 1
    12    7    8 2
    13    8   13 1
    14    8    9 1
    15    9   10 2
    16   10   11 1
    17   10   16 1
    18   11   12 1
    19   11   55 1
    20   12   13 1
    21   12   15 2
    22   13   14 1
    23   15   37 1
    24   16   27 1
    25   16   17 1
    26   17   18 1
    27   17   38 1
    28   17   39 1
    29   18   19 1
    30   18   40 1
    31   18   41 1
    32   19   25 1
    33   19   20 1
    34   19   56 1
    35   20   21 1
    36   20   42 1
    37   20   43 1
    38   21   22 1
    39   21   23 1
    40   21   28 1
    41   23   24 1
    42   23   44 1
    43   23   45 1
    44   24   25 1
    45   24   46 1
    46   24   47 1
    47   25   26 1
    48   25   27 1
    49   27   48 1
    50   27   49 1
    51   28   29 1
    52   28   50 1
    53   28   51 1
    54   29   33 1
    55   29   30 1
    56   30   31 2
    57   30   52 1
    58   31   32 1
    59   31   53 1
    60   32   33 2
    61   32   57 1
    62   33   54 1
