@<TRIPOS>MOLECULE
CHEMBL195503
   51    55     0     0     0
SMALL
USER_CHARGES

@<TRIPOS>ATOM
      1 C1         -0.3097   -0.1789    1.0667 C.ar      1 <0>        -0.0611
      2 C2          0.6850    0.6955    0.6707 C.ar      1 <0>        -0.1370
      3 C3          1.9748    0.2354    0.4818 C.ar      1 <0>        -0.0270
      4 C4          2.2699   -1.0991    0.6894 C.ar      1 <0>        -0.6644
      5 C5          1.2753   -1.9733    1.0863 C.ar      1 <0>        -0.0241
      6 C6         -0.0147   -1.5134    1.2738 C.ar      1 <0>        -0.1373
      7 S1          3.9136   -1.6858    0.4475 S.o2      1 <0>         2.4900
      8 O1          3.7642   -3.0633    0.1322 O.2       1 <0>        -0.9236
      9 O2          4.4855   -0.7856   -0.4916 O.2       1 <0>        -0.9267
     10 C7          4.7180   -1.4981    2.0626 C.3       1 <0>        -0.5728
     11 C8          6.1447   -1.9748    1.9716 C.ar      1 <0>        -0.0754
     12 C9          6.4344   -3.3195    2.1105 C.ar      1 <0>        -0.1069
     13 C10         7.7429   -3.7567    2.0270 C.ar      1 <0>        -0.1024
     14 C11         8.7621   -2.8494    1.8043 C.ar      1 <0>        -0.1087
     15 C12         8.4723   -1.5052    1.6646 C.ar      1 <0>        -0.0820
     16 C13         7.1630   -1.0684    1.7437 C.ar      1 <0>        -0.1026
     17 C14         6.8465    0.3965    1.5861 C.3       1 <0>         0.1453
     18 N1          6.8140    1.0337    2.9049 N.pl3     1 <0>        -0.4733
     19 C15         5.6972    1.3664    3.6135 C.2       1 <0>         0.2485
     20 N2          6.0350    1.9153    4.7446 N.2       1 <0>        -0.4426
     21 C16         7.3844    1.9701    4.8344 C.ar      1 <0>        -0.0897
     22 C17         7.9020    1.4002    3.6570 C.ar      1 <0>         0.3372
     23 N3          9.2181    1.3278    3.4972 N.ar      1 <0>        -0.5697
     24 C18        10.0386    1.7820    4.4320 C.ar      1 <0>         0.5985
     25 N4          9.5996    2.3242    5.5583 N.ar      1 <0>        -0.5487
     26 C19         8.2936    2.4450    5.8009 C.ar      1 <0>         0.3650
     27 C20         7.8129    3.0471    7.0563 C.2       1 <0>         0.0094
     28 C21         8.4136    2.9435    8.2746 C.2       1 <0>        -0.1384
     29 C22         7.6183    3.6681    9.1812 C.2       1 <0>        -0.2229
     30 C23         6.5816    4.1741    8.4819 C.2       1 <0>        -0.0107
     31 O3          6.7051    3.8014    7.1989 O.3       1 <0>        -0.1487
     32 N5         11.4052    1.6863    4.2250 N.pl3     1 <0>        -0.8145
     33 H1         -1.3164    0.1815    1.2186 H         1 <0>         0.1339
     34 H2          0.4544    1.7381    0.5085 H         1 <0>         0.1363
     35 H3          2.7518    0.9184    0.1717 H         1 <0>         0.1422
     36 H4          1.5058   -3.0159    1.2481 H         1 <0>         0.1427
     37 H5         -0.7918   -2.1965    1.5835 H         1 <0>         0.1359
     38 H6          4.7036   -0.4484    2.3558 H         1 <0>         0.1333
     39 H7          4.1837   -2.0903    2.8055 H         1 <0>         0.1543
     40 H8          5.6383   -4.0283    2.2845 H         1 <0>         0.1367
     41 H9          7.9694   -4.8070    2.1362 H         1 <0>         0.1335
     42 H10         9.7846   -3.1909    1.7398 H         1 <0>         0.1318
     43 H11         9.2685   -0.7964    1.4909 H         1 <0>         0.1366
     44 H12         7.6130    0.8699    0.9726 H         1 <0>         0.1124
     45 H13         5.8751    0.5086    1.1045 H         1 <0>         0.1114
     46 H14         4.6821    1.1992    3.2847 H         1 <0>         0.2194
     47 H15         9.3242    2.4086    8.5008 H         1 <0>         0.1560
     48 H16         7.8028    3.7951   10.2378 H         1 <0>         0.1555
     49 H17         5.7861    4.7818    8.8870 H         1 <0>         0.2100
     50 H18        11.7454    1.2921    3.4066 H         1 <0>         0.4168
     51 H19        12.0218    2.0137    4.8984 H         1 <0>         0.4187
@<TRIPOS>BOND
     1    1    6 ar
     2    1    2 ar
     3    1   33 1
     4    2    3 ar
     5    2   34 1
     6    3    4 ar
     7    3   35 1
     8    4    5 ar
     9    4    7 1
    10    5    6 ar
    11    5   36 1
    12    6   37 1
    13    7    8 2
    14    7    9 2
    15    7   10 1
    16   10   11 1
    17   10   38 1
    18   10   39 1
    19   11   16 ar
    20   11   12 ar
    21   12   13 ar
    22   12   40 1
    23   13   14 ar
    24   13   41 1
    25   14   15 ar
    26   14   42 1
    27   15   16 ar
    28   15   43 1
    29   16   17 1
    30   17   18 1
    31   17   44 1
    32   17   45 1
    33   18   22 1
    34   18   19 1
    35   19   20 2
    36   19   46 1
    37   20   21 1
    38   21   26 ar
    39   21   22 ar
    40   22   23 ar
    41   23   24 ar
    42   24   25 ar
    43   24   32 1
    44   25   26 ar
    45   26   27 1
    46   27   31 1
    47   27   28 2
    48   28   29 1
    49   28   47 1
    50   29   30 2
    51   29   48 1
    52   30   31 1
    53   30   49 1
    54   32   50 1
    55   32   51 1
