@<TRIPOS>MOLECULE
CHEMBL373026
   43    46     0     0     0
SMALL
USER_CHARGES

@<TRIPOS>ATOM
      1 C1         -0.0162    1.3434    0.0094 C.2       1 <0>        -0.2181
      2 C2          1.3251    1.7744   -0.0011 C.2       1 <0>        -0.1361
      3 C3          2.0961    0.6548   -0.0144 C.2       1 <0>         0.0413
      4 O1          1.2796   -0.4166   -0.0124 O.3       1 <0>        -0.1539
      5 C4          0.0021   -0.0041    0.0020 C.2       1 <0>        -0.0051
      6 C5          3.5735    0.6193   -0.0292 C.2       1 <0>         0.3302
      7 N1          4.3198   -0.4878   -0.0476 N.2       1 <0>        -0.4915
      8 C6          5.5988   -0.1621   -0.0576 C.2       1 <0>         0.2199
      9 C7          6.8395   -0.9374   -0.0778 C.2       1 <0>         0.4833
     10 N2          7.9911   -0.2989   -0.0834 N.2       1 <0>        -0.5100
     11 C8          8.0374    1.0452   -0.0708 C.2       1 <0>         0.0663
     12 C9          6.9030    1.7996   -0.0518 C.2       1 <0>         0.0733
     13 N3          5.6815    1.2046   -0.0451 N.pl3     1 <0>        -0.2546
     14 N4          4.3652    1.6797   -0.0320 N.2       1 <0>        -0.2753
     15 C10         9.3509    1.7204   -0.0772 C.2       1 <0>         0.5887
     16 O2          9.4103    2.9347   -0.0659 O.2       1 <0>        -0.5256
     17 N5         10.4837    0.9904   -0.0954 N.am      1 <0>        -0.7073
     18 C11        11.7867    1.6601   -0.1017 C.3       1 <0>         0.1225
     19 C12        12.8996    0.6104   -0.1229 C.3       1 <0>        -0.0907
     20 C13        14.2399    1.2993   -0.1294 C.ar      1 <0>        -0.0935
     21 C14        14.8393    1.6315   -1.3303 C.ar      1 <0>        -0.0956
     22 C15        16.0681    2.2627   -1.3390 C.ar      1 <0>        -0.1433
     23 C16        16.7005    2.5636   -0.1414 C.ar      1 <0>         0.1050
     24 C17        16.0968    2.2296    1.0622 C.ar      1 <0>        -0.1433
     25 C18        14.8655    1.6031    1.0656 C.ar      1 <0>        -0.0956
     26 O3         17.9096    3.1840   -0.1473 O.3       1 <0>        -0.5005
     27 N6          6.8032   -2.3228   -0.0905 N.pl3     1 <0>        -0.8035
     28 H1         -0.8931    1.9737    0.0252 H         1 <0>         0.1602
     29 H2          1.6735    2.7967    0.0008 H         1 <0>         0.1610
     30 H3         -0.8667   -0.6456    0.0069 H         1 <0>         0.2147
     31 H4          6.9751    2.8772   -0.0421 H         1 <0>         0.1940
     32 H5         10.4363    0.0216   -0.1044 H         1 <0>         0.4132
     33 H6         11.8662    2.2918   -0.9864 H         1 <0>         0.0750
     34 H7         11.8837    2.2745    0.7933 H         1 <0>         0.0750
     35 H8         12.8201   -0.0213    0.7618 H         1 <0>         0.0830
     36 H9         12.8025   -0.0040   -1.0180 H         1 <0>         0.0830
     37 H10        14.3465    1.3971   -2.2623 H         1 <0>         0.1282
     38 H11        16.5362    2.5214   -2.2772 H         1 <0>         0.1298
     39 H12        16.5871    2.4627    1.9958 H         1 <0>         0.1298
     40 H13        14.3931    1.3469    2.0023 H         1 <0>         0.1282
     41 H14        17.8563    4.1495   -0.1335 H         1 <0>         0.3924
     42 H15         5.9508   -2.7857   -0.0860 H         1 <0>         0.4248
     43 H16         7.6302   -2.8295   -0.1039 H         1 <0>         0.4207
@<TRIPOS>BOND
     1    1    5 2
     2    1    2 1
     3    1   28 1
     4    2    3 2
     5    2   29 1
     6    3    4 1
     7    3    6 1
     8    4    5 1
     9    5   30 1
    10    6   14 2
    11    6    7 1
    12    7    8 2
    13    8   13 1
    14    8    9 1
    15    9   10 2
    16    9   27 1
    17   10   11 1
    18   11   12 2
    19   11   15 1
    20   12   13 1
    21   12   31 1
    22   13   14 1
    23   15   16 2
    24   15   17 am
    25   17   18 1
    26   17   32 1
    27   18   19 1
    28   18   33 1
    29   18   34 1
    30   19   20 1
    31   19   35 1
    32   19   36 1
    33   20   25 ar
    34   20   21 ar
    35   21   22 ar
    36   21   37 1
    37   22   23 ar
    38   22   38 1
    39   23   24 ar
    40   23   26 1
    41   24   25 ar
    42   24   39 1
    43   25   40 1
    44   26   41 1
    45   27   42 1
    46   27   43 1
