@<TRIPOS>MOLECULE
CHEMBL222590
   65    71     0     0     0
SMALL
USER_CHARGES

@<TRIPOS>ATOM
      1 C1         -0.0168    1.3878    0.0097 C.ar      1 <0>        -0.0892
      2 C2          1.1394    2.1085    0.0025 C.ar      1 <0>        -0.1071
      3 C3          2.3735    1.4403   -0.0129 C.ar      1 <0>        -0.0832
      4 C4          3.5958    2.1321   -0.0204 C.ar      1 <0>         0.1460
      5 N1          4.7252    1.4637   -0.0344 N.ar      1 <0>        -0.4746
      6 C5          4.7749    0.1387   -0.0421 C.ar      1 <0>         0.0789
      7 C6          3.6458   -0.6234   -0.0363 C.ar      1 <0>        -0.1414
      8 C7          2.3969    0.0214   -0.0208 C.ar      1 <0>        -0.0368
      9 C8          1.1844   -0.6915   -0.0139 C.ar      1 <0>         0.1299
     10 C9          0.0021   -0.0041    0.0020 C.ar      1 <0>        -0.1976
     11 O1          1.1876   -2.0496   -0.0217 O.3       1 <0>        -0.2952
     12 C10        -0.0840   -2.7015   -0.0140 C.3       1 <0>         0.0474
     13 C11         0.1201   -4.2178   -0.0245 C.3       1 <0>        -0.1105
     14 H1          0.7450   -4.4965   -0.8730 H         1 <0>         0.1352
     15 C12         0.7986   -4.6540    1.2785 C.3       1 <0>        -0.1284
     16 C13        -0.1187   -4.2977    2.4492 C.3       1 <0>        -0.1434
     17 C14        -1.4834   -4.9706    2.2656 C.3       1 <0>         0.0153
     18 H2         -1.3593   -6.0535    2.2655 H         1 <0>         0.1487
     19 C15        -2.3743   -4.5555    3.4444 C.3       1 <0>         0.1091
     20 N2         -3.7378   -5.0514    3.2166 N.pl3     1 <0>        -0.5974
     21 C16        -4.3645   -4.7568    1.9177 C.3       1 <0>         0.0887
     22 C17        -3.3966   -5.1949    0.8163 C.3       1 <0>        -0.0217
     23 N3         -2.0887   -4.5456    0.9992 N.4       1 <0>        -0.3841
     24 C18        -1.2346   -4.9164   -0.1345 C.3       1 <0>         0.0002
     25 C19        -4.4030   -5.7637    4.1791 C.2       1 <0>         0.6713
     26 N4         -5.6756   -6.2138    3.9224 N.pl3     1 <0>        -0.6593
     27 C20        -6.1589   -7.3047    4.6443 C.2       1 <0>         0.6286
     28 N5         -5.6264   -7.4141    5.9185 N.pl3     1 <0>        -0.4287
     29 C21        -4.4513   -6.7673    6.2414 C.2       1 <0>         0.4985
     30 N6         -3.8039   -6.0073    5.3329 N.2       1 <0>        -0.5252
     31 N7         -4.1788   -7.0518    7.4889 N.2       1 <0>        -0.4809
     32 C22        -5.1368   -7.8531    7.9894 C.2       1 <0>         0.3443
     33 N8         -6.0398   -8.0923    7.0530 N.2       1 <0>        -0.2730
     34 C23        -5.1739   -8.3831    9.3682 C.2       1 <0>         0.0276
     35 C24        -4.2557   -8.1407   10.3412 C.2       1 <0>        -0.1212
     36 C25        -4.6839   -8.8403   11.4868 C.2       1 <0>        -0.2192
     37 C26        -5.8304   -9.4686   11.1601 C.2       1 <0>         0.0003
     38 O2         -6.1265   -9.1855    9.8813 O.3       1 <0>        -0.1602
     39 N9         -7.0320   -8.1440    4.1645 N.2       1 <0>        -0.6685
     40 H3         -0.9645    1.9054    0.0261 H         1 <0>         0.1324
     41 H4          1.1065    3.1879    0.0083 H         1 <0>         0.1406
     42 H5          3.6063    3.2120   -0.0149 H         1 <0>         0.1712
     43 H6          5.7379   -0.3502   -0.0536 H         1 <0>         0.1585
     44 H7          3.7090   -1.7016   -0.0434 H         1 <0>         0.1417
     45 H8         -0.9303   -0.5490    0.0084 H         1 <0>         0.1236
     46 H9         -0.6337   -2.4151    0.8826 H         1 <0>         0.0577
     47 H10        -0.6497   -2.4049   -0.8972 H         1 <0>         0.0776
     48 H11         0.9674   -5.7307    1.2605 H         1 <0>         0.0904
     49 H12         1.7500   -4.1335    1.3877 H         1 <0>         0.1071
     50 H13         0.3322   -4.6414    3.3802 H         1 <0>         0.1234
     51 H14        -0.2507   -3.2165    2.4898 H         1 <0>         0.0921
     52 H15        -1.9806   -4.9828    4.3666 H         1 <0>         0.1545
     53 H16        -2.3905   -3.4685    3.5235 H         1 <0>         0.1043
     54 H17        -5.3004   -5.3080    1.8265 H         1 <0>         0.1292
     55 H18        -4.5565   -3.6870    1.8354 H         1 <0>         0.1141
     56 H19        -3.2671   -6.2764    0.8575 H         1 <0>         0.1404
     57 H20        -3.8050   -4.9177   -0.1556 H         1 <0>         0.1543
     58 H21        -1.7167   -4.6243   -1.0674 H         1 <0>         0.1402
     59 H22        -1.0853   -5.9961   -0.1307 H         1 <0>         0.1417
     60 H23        -3.3691   -7.5304   10.2528 H         1 <0>         0.1634
     61 H24        -4.1871   -8.8680   12.4453 H         1 <0>         0.1619
     62 H25        -6.4163  -10.0925   11.8188 H         1 <0>         0.2159
     63 H26        -7.3379   -8.8882    4.7062 H         1 <0>         0.3851
     64 H27        -6.2272   -5.7809    3.2522 H         1 <0>         0.4369
     65 H28        -2.2128   -3.5443    1.0046 H         1 <0>         0.4185
@<TRIPOS>BOND
     1    1   10 ar
     2    1    2 ar
     3    1   40 1
     4    2    3 ar
     5    2   41 1
     6    3    8 ar
     7    3    4 ar
     8    4    5 ar
     9    4   42 1
    10    5    6 ar
    11    6    7 ar
    12    6   43 1
    13    7    8 ar
    14    7   44 1
    15    8    9 ar
    16    9   10 ar
    17    9   11 1
    18   10   45 1
    19   11   12 1
    20   12   13 1
    21   12   46 1
    22   12   47 1
    23   13   14 1
    24   13   24 1
    25   13   15 1
    26   15   16 1
    27   15   48 1
    28   15   49 1
    29   16   17 1
    30   16   50 1
    31   16   51 1
    32   17   18 1
    33   17   23 1
    34   17   19 1
    35   19   20 1
    36   19   52 1
    37   19   53 1
    38   20   21 1
    39   20   25 1
    40   21   22 1
    41   21   54 1
    42   21   55 1
    43   22   23 1
    44   22   56 1
    45   22   57 1
    46   23   24 1
    47   23   65 1
    48   24   58 1
    49   24   59 1
    50   25   30 2
    51   25   26 1
    52   26   27 1
    53   26   64 1
    54   27   28 1
    55   27   39 2
    56   28   33 1
    57   28   29 1
    58   29   30 1
    59   29   31 2
    60   31   32 1
    61   32   33 2
    62   32   34 1
    63   34   38 1
    64   34   35 2
    65   35   36 1
    66   35   60 1
    67   36   37 2
    68   36   61 1
    69   37   38 1
    70   37   62 1
    71   39   63 1
