@<TRIPOS>MOLECULE
CHEMBL480380
   72    76     0     0     0
SMALL
USER_CHARGES

@<TRIPOS>ATOM
      1 C1          0.0067    1.4470    0.0051 C.3       1 <0>         0.0881
      2 N1          0.0337   -0.0177    0.0042 N.pl3     1 <0>        -0.5911
      3 C2          0.0464   -0.7509    1.2725 C.3       1 <0>         0.1277
      4 C3         -1.3914   -1.0327    1.7131 C.3       1 <0>         0.0419
      5 N2         -1.3787   -1.7678    2.9848 N.3       1 <0>        -0.5327
      6 C4         -0.7895   -3.1028    2.8154 C.3       1 <0>         0.0386
      7 C5         -0.6284   -3.7644    4.1881 C.3       1 <0>         0.1272
      8 N3         -1.9295   -3.7413    4.8735 N.pl3     1 <0>        -0.6333
      9 C6         -2.6467   -2.4603    4.9622 C.3       1 <0>         0.1291
     10 C7         -2.7284   -1.8500    3.5589 C.3       1 <0>         0.0422
     11 C8         -2.4709   -4.9074    5.4262 C.ar      1 <0>         0.1871
     12 C9         -1.8351   -6.1269    5.2350 C.ar      1 <0>        -0.1597
     13 C10        -2.3699   -7.2772    5.7812 C.ar      1 <0>        -0.1000
     14 C11        -3.5417   -7.2144    6.5206 C.ar      1 <0>         0.0732
     15 C12        -4.1777   -5.9967    6.7117 C.ar      1 <0>        -0.1584
     16 C13        -3.6412   -4.8446    6.1710 C.ar      1 <0>        -0.1604
     17 O1         -4.0677   -8.3476    7.0581 O.3       1 <0>        -0.3106
     18 C14        -5.2763   -8.2096    7.8078 C.3       1 <0>         0.0632
     19 C15        -5.7121   -9.5802    8.3297 C.3       1 <0>         0.0618
     20 O2         -4.7430  -10.0655    9.2609 O.3       1 <0>        -0.3847
     21 C16        -5.0562  -11.3466    9.8112 C.3       1 <0>         0.0302
     22 C17         0.0473   -0.7106   -1.1978 C.2       1 <0>         0.4735
     23 C18         0.0410   -0.0171   -2.3928 C.2       1 <0>        -0.3182
     24 C19         0.0556   -0.7490   -3.5920 C.2       1 <0>         0.3802
     25 N4          0.0548   -0.4096   -4.8724 N.2       1 <0>        -0.5533
     26 C20         0.0733   -1.5117   -5.6272 C.2       1 <0>         0.3203
     27 N5          0.0863   -2.5759   -4.8497 N.2       1 <0>        -0.3415
     28 N6          0.0754   -2.1193   -3.5257 N.pl3     1 <0>        -0.3780
     29 C21         0.0805   -2.7405   -2.3142 C.2       1 <0>         0.6819
     30 N7          0.0719   -2.0490   -1.1964 N.2       1 <0>        -0.5901
     31 N8          0.0999   -4.1139   -2.2591 N.pl3     1 <0>        -0.8074
     32 C22         0.0785   -1.5342   -7.1114 C.ar      1 <0>        -0.0215
     33 C23         0.0921   -2.7517   -7.7911 C.ar      1 <0>        -0.0499
     34 C24         0.0975   -2.7761   -9.1721 C.ar      1 <0>        -0.1226
     35 C25         0.0888   -1.5964   -9.8891 C.ar      1 <0>        -0.0507
     36 C26         0.0751   -0.3704   -9.2201 C.ar      1 <0>        -0.0313
     37 C27         0.0639   -0.3415   -7.8258 C.ar      1 <0>        -0.0222
     38 C28         0.0671    0.8533   -9.9637 C.1       1 <0>         0.2525
     39 N9          0.0608    1.8241  -10.5537 N.1       1 <0>        -0.4078
     40 H1          1.0275    1.8292    0.0060 H         1 <0>         0.0633
     41 H2         -0.5131    1.8014   -0.8850 H         1 <0>         0.0788
     42 H3         -0.5143    1.8003    0.8950 H         1 <0>         0.0787
     43 H4          0.5778   -1.6936    1.1419 H         1 <0>         0.0891
     44 H5          0.5488   -0.1529    2.0328 H         1 <0>         0.0876
     45 H6         -1.9228   -0.0900    1.8437 H         1 <0>         0.0752
     46 H7         -1.8938   -1.6307    0.9527 H         1 <0>         0.0393
     47 H8         -1.4436   -3.7126    2.1922 H         1 <0>         0.0391
     48 H9          0.1865   -3.0117    2.3387 H         1 <0>         0.0883
     49 H10        -0.2996   -4.7958    4.0612 H         1 <0>         0.0854
     50 H11         0.1052   -3.2131    4.7764 H         1 <0>         0.0691
     51 H12        -3.6524   -2.6296    5.3469 H         1 <0>         0.0842
     52 H13        -2.1072   -1.7837    5.6249 H         1 <0>         0.0693
     53 H14        -3.1585   -0.8505    3.6214 H         1 <0>         0.0846
     54 H15        -3.3555   -2.4773    2.9254 H         1 <0>         0.0379
     55 H16        -0.9229   -6.1761    4.6589 H         1 <0>         0.1287
     56 H17        -1.8757   -8.2259    5.6322 H         1 <0>         0.1295
     57 H18        -5.0903   -5.9488    7.2873 H         1 <0>         0.1253
     58 H19        -4.1339   -3.8958    6.3240 H         1 <0>         0.1241
     59 H20        -5.1073   -7.5374    8.6491 H         1 <0>         0.0691
     60 H21        -6.0568   -7.8000    7.1666 H         1 <0>         0.0750
     61 H22        -6.6787   -9.4898    8.8252 H         1 <0>         0.0708
     62 H23        -5.7952  -10.2770    7.4956 H         1 <0>         0.0611
     63 H24        -6.0092  -11.2928   10.3375 H         1 <0>         0.0417
     64 H25        -5.1256  -12.0800    9.0078 H         1 <0>         0.0429
     65 H26        -4.2726  -11.6442   10.5080 H         1 <0>         0.0880
     66 H27         0.0250    1.0627   -2.4049 H         1 <0>         0.1586
     67 H28         0.1098   -4.6321   -3.0791 H         1 <0>         0.4247
     68 H29         0.1037   -4.5648   -1.4003 H         1 <0>         0.4272
     69 H30         0.0990   -3.6782   -7.2362 H         1 <0>         0.1403
     70 H31         0.1088   -3.7220   -9.6932 H         1 <0>         0.1427
     71 H32         0.0930   -1.6216  -10.9688 H         1 <0>         0.1391
     72 H33         0.0488    0.6035   -7.3031 H         1 <0>         0.1481
@<TRIPOS>BOND
     1    1    2 1
     2    1   40 1
     3    1   41 1
     4    1   42 1
     5    2    3 1
     6    2   22 1
     7    3    4 1
     8    3   43 1
     9    3   44 1
    10    4    5 1
    11    4   45 1
    12    4   46 1
    13    5   10 1
    14    5    6 1
    15    6    7 1
    16    6   47 1
    17    6   48 1
    18    7    8 1
    19    7   49 1
    20    7   50 1
    21    8    9 1
    22    8   11 1
    23    9   10 1
    24    9   51 1
    25    9   52 1
    26   10   53 1
    27   10   54 1
    28   11   16 ar
    29   11   12 ar
    30   12   13 ar
    31   12   55 1
    32   13   14 ar
    33   13   56 1
    34   14   15 ar
    35   14   17 1
    36   15   16 ar
    37   15   57 1
    38   16   58 1
    39   17   18 1
    40   18   19 1
    41   18   59 1
    42   18   60 1
    43   19   20 1
    44   19   61 1
    45   19   62 1
    46   20   21 1
    47   21   63 1
    48   21   64 1
    49   21   65 1
    50   22   30 1
    51   22   23 2
    52   23   24 1
    53   23   66 1
    54   24   28 1
    55   24   25 2
    56   25   26 1
    57   26   27 2
    58   26   32 1
    59   27   28 1
    60   28   29 1
    61   29   30 2
    62   29   31 1
    63   31   67 1
    64   31   68 1
    65   32   37 ar
    66   32   33 ar
    67   33   34 ar
    68   33   69 1
    69   34   35 ar
    70   34   70 1
    71   35   36 ar
    72   35   71 1
    73   36   37 ar
    74   36   38 1
    75   37   72 1
    76   38   39 3
