@<TRIPOS>MOLECULE
CHEMBL604026
   56    59     0     0     0
SMALL
USER_CHARGES

@<TRIPOS>ATOM
      1 C1         -0.0187    1.5258    0.0104 C.3       1 <0>        -0.1679
      2 C2          0.0021   -0.0041    0.0020 C.3       1 <0>         0.1135
      3 N1          0.6878   -0.4765   -1.2033 N.am      1 <0>        -0.7271
      4 C3          0.8268   -1.7986   -1.4250 C.2       1 <0>         0.5160
      5 O1          0.3843   -2.5972   -0.6267 O.2       1 <0>        -0.5032
      6 C4          1.5322   -2.2846   -2.6649 C.3       1 <0>         0.0316
      7 H1          2.5323   -1.8560   -2.7290 H         1 <0>         0.1224
      8 C5          0.7085   -1.9402   -3.9319 C.3       1 <0>         0.0511
      9 H2         -0.3595   -2.0480   -3.7427 H         1 <0>         0.0954
     10 C6          1.2015   -3.0074   -4.9392 C.3       1 <0>         0.0825
     11 H3          0.3680   -3.3897   -5.5285 H         1 <0>         0.0904
     12 C7          1.7901   -4.1212   -4.0517 C.3       1 <0>         0.3134
     13 O2          1.5952   -3.7270   -2.6817 O.3       1 <0>        -0.3263
     14 N2          1.0956   -5.3847   -4.3118 N.pl3     1 <0>        -0.4735
     15 C8          0.0371   -5.8826   -3.6116 C.2       1 <0>         0.2713
     16 N3         -0.3305   -7.0259   -4.1137 N.2       1 <0>        -0.4564
     17 C9          0.4656   -7.3344   -5.1647 C.ar      1 <0>        -0.1009
     18 C10         1.3874   -6.2818   -5.3089 C.ar      1 <0>         0.3135
     19 N4          2.2866   -6.3378   -6.2830 N.ar      1 <0>        -0.5334
     20 C11         2.3169   -7.3703   -7.1145 C.ar      1 <0>         0.4992
     21 N5          1.4623   -8.3848   -7.0165 N.ar      1 <0>        -0.5696
     22 C12         0.5371   -8.4123   -6.0657 C.ar      1 <0>         0.5157
     23 N6         -0.3489   -9.4714   -5.9722 N.pl3     1 <0>        -0.8130
     24 C13         3.3026   -7.3937   -8.1530 C.1       1 <0>        -0.1048
     25 C14         4.1107   -7.4129   -9.0044 C.1       1 <0>        -0.0852
     26 C15         5.1240   -7.4370  -10.0719 C.3       1 <0>         0.1711
     27 N7          4.9711   -8.6643  -10.8645 N.3       1 <0>        -0.5523
     28 C16         5.2327   -9.8521  -10.0486 C.3       1 <0>         0.0529
     29 C17         4.6374  -11.0909  -10.7279 C.3       1 <0>        -0.0723
     30 S1          5.4477  -11.3030  -12.3435 S.3       1 <0>        -0.2740
     31 C18         5.2975   -9.6491  -13.0876 C.3       1 <0>        -0.0749
     32 C19         5.7988   -8.6158  -12.0719 C.3       1 <0>         0.0561
     33 O3          2.2079   -2.4612   -5.7941 O.3       1 <0>        -0.5313
     34 O4          1.0116   -0.6227   -4.3947 O.3       1 <0>        -0.5360
     35 H4          1.0039    1.9031    0.0027 H         1 <0>         0.0645
     36 H5         -0.5459    1.8868   -0.8726 H         1 <0>         0.0637
     37 H6         -0.5289    1.8773    0.9072 H         1 <0>         0.0793
     38 H7          0.5293   -0.3651    0.8851 H         1 <0>         0.0731
     39 H8         -1.0205   -0.3814    0.0098 H         1 <0>         0.0729
     40 H9          1.0417    0.1622   -1.8418 H         1 <0>         0.3979
     41 H10         2.8552   -4.2328   -4.2545 H         1 <0>         0.1324
     42 H11        -0.4277   -5.3998   -2.7647 H         1 <0>         0.2274
     43 H12        -1.0284   -9.4756   -5.2800 H         1 <0>         0.4216
     44 H13        -0.2903  -10.2095   -6.5988 H         1 <0>         0.4127
     45 H14         4.9922   -6.5687  -10.7175 H         1 <0>         0.1108
     46 H15         6.1195   -7.4124   -9.6286 H         1 <0>         0.0720
     47 H16         6.3088   -9.9835   -9.9345 H         1 <0>         0.0535
     48 H17         4.7783   -9.7241   -9.0661 H         1 <0>         0.0898
     49 H18         4.8158  -11.9704  -10.1093 H         1 <0>         0.1092
     50 H19         3.5656  -10.9524  -10.8699 H         1 <0>         0.0936
     51 H20         5.9023   -9.5974  -13.9930 H         1 <0>         0.1106
     52 H21         4.2539   -9.4490  -13.3305 H         1 <0>         0.0932
     53 H22         5.7419   -7.6196  -12.5105 H         1 <0>         0.0910
     54 H23         6.8337   -8.8370  -11.8108 H         1 <0>         0.0550
     55 H24         1.9048   -1.7181   -6.3335 H         1 <0>         0.3972
     56 H25         0.8031    0.0753   -3.7587 H         1 <0>         0.3844
@<TRIPOS>BOND
     1    1    2 1
     2    1   35 1
     3    1   36 1
     4    1   37 1
     5    2    3 1
     6    2   38 1
     7    2   39 1
     8    3    4 am
     9    3   40 1
    10    4    5 2
    11    4    6 1
    12    6    7 1
    13    6   13 1
    14    6    8 1
    15    8    9 1
    16    8   10 1
    17    8   34 1
    18   10   11 1
    19   10   12 1
    20   10   33 1
    21   12   13 1
    22   12   14 1
    23   12   41 1
    24   14   18 1
    25   14   15 1
    26   15   16 2
    27   15   42 1
    28   16   17 1
    29   17   22 ar
    30   17   18 ar
    31   18   19 ar
    32   19   20 ar
    33   20   21 ar
    34   20   24 1
    35   21   22 ar
    36   22   23 1
    37   23   43 1
    38   23   44 1
    39   24   25 3
    40   25   26 1
    41   26   27 1
    42   26   45 1
    43   26   46 1
    44   27   32 1
    45   27   28 1
    46   28   29 1
    47   28   47 1
    48   28   48 1
    49   29   30 1
    50   29   49 1
    51   29   50 1
    52   30   31 1
    53   31   32 1
    54   31   51 1
    55   31   52 1
    56   32   53 1
    57   32   54 1
    58   33   55 1
    59   34   56 1
