@<TRIPOS>MOLECULE
CHEMBL112631
   43    45     0     0     0
SMALL
USER_CHARGES

@<TRIPOS>ATOM
      1 C1          1.6504   -2.9750   -1.5820 C.3       1 <0>         0.0892
      2 N1          1.1025   -2.8398   -0.2301 N.am      1 <0>        -0.6225
      3 C2          1.8901   -2.1852    0.8174 C.3       1 <0>         0.0731
      4 C3         -0.1262   -3.3177    0.0500 C.2       1 <0>         0.4962
      5 O1         -0.7783   -3.8597   -0.8172 O.2       1 <0>        -0.5266
      6 C4         -0.6898   -3.1787    1.4407 C.3       1 <0>         0.0981
      7 N2         -2.0282   -3.7728    1.4868 N.am      1 <0>        -0.5913
      8 C5         -2.1899   -5.1884    1.8274 C.3       1 <0>         0.0783
      9 C6         -3.1106   -3.0169    1.2160 C.2       1 <0>         0.5743
     10 O2         -2.9721   -1.8675    0.8456 O.2       1 <0>        -0.5115
     11 C7         -4.4668   -3.5858    1.3694 C.2       1 <0>         0.0053
     12 C8         -5.1822   -4.0385    0.2408 C.2       1 <0>        -0.2321
     13 C9         -6.4291   -4.5610    0.3912 C.2       1 <0>         0.4595
     14 N3         -7.0019   -4.6543    1.6253 N.pl3     1 <0>        -0.3165
     15 C10        -6.3383   -4.2255    2.7423 C.2       1 <0>         0.3353
     16 C11        -5.0474   -3.6856    2.6252 C.2       1 <0>        -0.1398
     17 N4         -7.1306   -4.4378    3.7875 N.2       1 <0>        -0.5211
     18 C12        -8.2752   -4.9863    3.3782 C.2       1 <0>         0.3436
     19 N5         -8.2433   -5.1379    2.0648 N.2       1 <0>        -0.3238
     20 C13        -9.4027   -5.3654    4.2550 C.2       1 <0>         0.0689
     21 C14        -9.4507   -5.2098    5.6047 C.2       1 <0>        -0.1284
     22 C15       -10.7017   -5.7021    6.0259 C.2       1 <0>        -0.1561
     23 C16       -11.3496   -6.1299    4.9229 C.2       1 <0>        -0.0098
     24 O3        -10.5637   -5.9199    3.8547 O.3       1 <0>        -0.1442
     25 Br1       -13.0796   -6.8924    4.8863 Br        1 <0>         0.0658
     26 N6         -7.1250   -5.0027   -0.7216 N.pl3     1 <0>        -0.8424
     27 H1          2.6462   -2.5330   -1.6164 H         1 <0>         0.0768
     28 H2          1.7123   -4.0309   -1.8451 H         1 <0>         0.0612
     29 H3          1.0004   -2.4615   -2.2905 H         1 <0>         0.0614
     30 H4          1.6744   -1.1168    0.8201 H         1 <0>         0.0621
     31 H5          1.6304   -2.6107    1.7868 H         1 <0>         0.0732
     32 H6          2.9516   -2.3411    0.6249 H         1 <0>         0.0768
     33 H7         -0.0398   -3.6921    2.1492 H         1 <0>         0.1147
     34 H8         -0.7517   -2.1227    1.7037 H         1 <0>         0.1179
     35 H9         -2.2339   -5.2987    2.9109 H         1 <0>         0.0674
     36 H10        -3.1126   -5.5652    1.3860 H         1 <0>         0.0769
     37 H11        -1.3435   -5.7546    1.4386 H         1 <0>         0.0761
     38 H12        -4.7401   -3.9700   -0.7422 H         1 <0>         0.1650
     39 H13        -4.5143   -3.3487    3.5020 H         1 <0>         0.1638
     40 H14        -8.6788   -4.7902    6.2327 H         1 <0>         0.1736
     41 H15       -11.0719   -5.7313    7.0401 H         1 <0>         0.1712
     42 H16        -6.7229   -4.9387   -1.6020 H         1 <0>         0.4242
     43 H17        -8.0145   -5.3762   -0.6207 H         1 <0>         0.4159
@<TRIPOS>BOND
     1    1    2 1
     2    1   27 1
     3    1   28 1
     4    1   29 1
     5    2    3 1
     6    2    4 am
     7    3   30 1
     8    3   31 1
     9    3   32 1
    10    4    5 2
    11    4    6 1
    12    6    7 1
    13    6   33 1
    14    6   34 1
    15    7    8 1
    16    7    9 am
    17    8   35 1
    18    8   36 1
    19    8   37 1
    20    9   10 2
    21    9   11 1
    22   11   16 2
    23   11   12 1
    24   12   13 2
    25   12   38 1
    26   13   14 1
    27   13   26 1
    28   14   19 1
    29   14   15 1
    30   15   16 1
    31   15   17 2
    32   16   39 1
    33   17   18 1
    34   18   19 2
    35   18   20 1
    36   20   24 1
    37   20   21 2
    38   21   22 1
    39   21   40 1
    40   22   23 2
    41   22   41 1
    42   23   24 1
    43   23   25 1
    44   26   42 1
    45   26   43 1
