@<TRIPOS>MOLECULE
CHEMBL423542
   44    48     0     0     0
SMALL
USER_CHARGES

@<TRIPOS>ATOM
      1 C1         -0.0167    1.3781    0.0096 C.ar      1 <0>        -0.1228
      2 C2          1.1709    2.0855    0.0021 C.ar      1 <0>        -0.1178
      3 C3          2.3773    1.4107   -0.0130 C.ar      1 <0>        -0.1151
      4 C4          2.3960    0.0285   -0.0201 C.ar      1 <0>        -0.0848
      5 C5          1.2084   -0.6789   -0.0117 C.ar      1 <0>        -0.1170
      6 C6          0.0021   -0.0041    0.0020 C.ar      1 <0>        -0.1186
      7 C7          3.7112   -0.7071   -0.0376 C.3       1 <0>        -0.0775
      8 C8          4.1714   -0.9633    1.3989 C.3       1 <0>        -0.1278
      9 C9          5.5066   -1.7102    1.3812 C.3       1 <0>         0.1286
     10 N1          5.9472   -1.9554    2.7567 N.pl3     1 <0>        -0.3399
     11 C10         6.2620   -3.1595    3.2652 C.2       1 <0>         0.1603
     12 C11         6.6251   -2.9794    4.5748 C.2       1 <0>        -0.2759
     13 C12         6.5109   -1.5389    4.8529 C.2       1 <0>         0.3219
     14 N2          6.1098   -0.9707    3.7382 N.2       1 <0>        -0.2668
     15 N3          6.8190   -1.0942    6.1000 N.2       1 <0>        -0.5330
     16 C13         7.2089   -1.9061    7.0444 C.2       1 <0>         0.6845
     17 N4          7.3445   -3.2585    6.8776 N.pl3     1 <0>        -0.3798
     18 C14         7.0681   -3.8476    5.6729 C.2       1 <0>         0.4127
     19 N5          7.2794   -5.1390    5.7932 N.2       1 <0>        -0.5150
     20 C15         7.6854   -5.4146    7.0402 C.2       1 <0>         0.3415
     21 N6          7.7405   -4.2956    7.7352 N.2       1 <0>        -0.2896
     22 C16         8.0202   -6.7592    7.5541 C.2       1 <0>         0.0443
     23 C17         8.4276   -7.0516    8.8178 C.2       1 <0>        -0.1384
     24 C18         8.6329   -8.4448    8.8658 C.2       1 <0>        -0.2189
     25 C19         8.3437   -8.9289    7.6420 C.2       1 <0>        -0.0062
     26 O1          7.9691   -7.9086    6.8536 O.3       1 <0>        -0.1534
     27 N7          7.5010   -1.3727    8.2781 N.pl3     1 <0>        -0.8081
     28 H1         -0.9591    1.9053    0.0259 H         1 <0>         0.1215
     29 H2          1.1563    3.1654    0.0076 H         1 <0>         0.1224
     30 H3          3.3051    1.9634   -0.0196 H         1 <0>         0.1223
     31 H4          1.2231   -1.7588   -0.0176 H         1 <0>         0.1209
     32 H5         -0.9258   -0.5567    0.0082 H         1 <0>         0.1219
     33 H6          3.5884   -1.6586   -0.5549 H         1 <0>         0.0771
     34 H7          4.4573   -0.1052   -0.5563 H         1 <0>         0.0786
     35 H8          4.2941   -0.0118    1.9163 H         1 <0>         0.0850
     36 H9          3.4252   -1.5652    1.9176 H         1 <0>         0.0730
     37 H10         5.3838   -2.6617    0.8639 H         1 <0>         0.1077
     38 H11         6.2527   -1.1082    0.8625 H         1 <0>         0.0980
     39 H12         6.2335   -4.1008    2.7364 H         1 <0>         0.1978
     40 H13         8.5673   -6.3513    9.6280 H         1 <0>         0.1602
     41 H14         8.9602   -9.0165    9.7217 H         1 <0>         0.1593
     42 H15         8.3999   -9.9659    7.3456 H         1 <0>         0.2138
     43 H16         7.4147   -0.4180    8.4264 H         1 <0>         0.4297
     44 H17         7.7933   -1.9512    8.9998 H         1 <0>         0.4234
@<TRIPOS>BOND
     1    1    6 ar
     2    1    2 ar
     3    1   28 1
     4    2    3 ar
     5    2   29 1
     6    3    4 ar
     7    3   30 1
     8    4    5 ar
     9    4    7 1
    10    5    6 ar
    11    5   31 1
    12    6   32 1
    13    7    8 1
    14    7   33 1
    15    7   34 1
    16    8    9 1
    17    8   35 1
    18    8   36 1
    19    9   10 1
    20    9   37 1
    21    9   38 1
    22   10   14 1
    23   10   11 1
    24   11   12 2
    25   11   39 1
    26   12   18 1
    27   12   13 1
    28   13   14 2
    29   13   15 1
    30   15   16 2
    31   16   17 1
    32   16   27 1
    33   17   21 1
    34   17   18 1
    35   18   19 2
    36   19   20 1
    37   20   21 2
    38   20   22 1
    39   22   26 1
    40   22   23 2
    41   23   24 1
    42   23   40 1
    43   24   25 2
    44   24   41 1
    45   25   26 1
    46   25   42 1
    47   27   43 1
    48   27   44 1
