@<TRIPOS>MOLECULE
CHEMBL272679
   59    62     0     0     0
SMALL
USER_CHARGES

@<TRIPOS>ATOM
      1 C1         -0.0174    1.5029    0.0163 C.3       1 <0>        -0.0826
      2 C2          0.0028   -0.0040    0.0067 C.2       1 <0>         0.0295
      3 C3         -1.0824   -0.8047    0.0055 C.2       1 <0>        -0.2284
      4 C4         -0.6156   -2.1325   -0.0046 C.2       1 <0>        -0.1120
      5 C5          0.7438   -2.0698   -0.0091 C.2       1 <0>         0.0079
      6 O1          1.1033   -0.7711   -0.0079 O.3       1 <0>        -0.1501
      7 C6          1.6639   -3.2233   -0.0197 C.ar      1 <0>         0.4621
      8 N1          1.1612   -4.4528   -0.0311 N.ar      1 <0>        -0.5071
      9 C7          1.9607   -5.5134   -0.0409 C.ar      1 <0>         0.4307
     10 C8          3.3411   -5.3227   -0.0390 C.ar      1 <0>        -0.2601
     11 C9          3.8312   -4.0210   -0.0269 C.ar      1 <0>         0.4582
     12 N2          2.9741   -3.0063   -0.0230 N.ar      1 <0>        -0.5417
     13 N3          5.2072   -3.7839   -0.0245 N.pl3     1 <0>        -0.3370
     14 C10         5.8270   -2.6608   -0.4732 C.2       1 <0>         0.1161
     15 C11         7.1571   -2.8288   -0.2951 C.2       1 <0>        -0.2569
     16 C12         7.3603   -4.0894    0.2785 C.2       1 <0>         0.1075
     17 N4          6.1949   -4.6588    0.4463 N.2       1 <0>        -0.2875
     18 C13         8.6944   -4.6863    0.6461 C.3       1 <0>        -0.0780
     19 C14         5.1541   -1.4481   -1.0627 C.3       1 <0>        -0.0892
     20 N5          1.4270   -6.7978   -0.0524 N.am      1 <0>        -0.6514
     21 C15         0.0948   -6.9750    0.0491 C.2       1 <0>         0.5067
     22 O2         -0.6457   -6.0146    0.0576 O.2       1 <0>        -0.4646
     23 C16        -0.4747   -8.3664    0.1520 C.3       1 <0>        -0.1381
     24 C17        -1.9991   -8.2873    0.2555 C.3       1 <0>        -0.0855
     25 C18        -2.3884   -7.6021    1.5686 C.3       1 <0>        -0.1511
     26 C19        -3.9127   -7.5975    1.7028 C.3       1 <0>        -0.0043
     27 N6         -4.4117   -8.9778    1.7027 N.4       1 <0>        -0.3855
     28 C20        -4.1048   -9.6183    0.4181 C.3       1 <0>        -0.0054
     29 C21        -2.5879   -9.7008    0.2345 C.3       1 <0>        -0.1436
     30 C22        -5.8661   -8.9712    1.9097 C.3       1 <0>        -0.0474
     31 H1          1.0052    1.8801    0.0100 H         1 <0>         0.0814
     32 H2         -0.5437    1.8648   -0.8670 H         1 <0>         0.0933
     33 H3         -0.5285    1.8536    0.9129 H         1 <0>         0.0929
     34 H4         -2.1146   -0.4871    0.0115 H         1 <0>         0.1570
     35 H5         -1.2194   -3.0278   -0.0078 H         1 <0>         0.1625
     36 H6          4.0152   -6.1665   -0.0464 H         1 <0>         0.1621
     37 H7          7.9270   -2.1159   -0.5509 H         1 <0>         0.1617
     38 H8          8.9433   -4.4154    1.6721 H         1 <0>         0.0852
     39 H9          8.6432   -5.7716    0.5591 H         1 <0>         0.0778
     40 H10         9.4615   -4.3036   -0.0271 H         1 <0>         0.0862
     41 H11         4.9184   -0.7408   -0.2675 H         1 <0>         0.0893
     42 H12         5.8224   -0.9758   -1.7828 H         1 <0>         0.0856
     43 H13         4.2348   -1.7505   -1.5642 H         1 <0>         0.0772
     44 H14         2.0136   -7.5661   -0.1335 H         1 <0>         0.4267
     45 H15        -0.1999   -8.9380   -0.7345 H         1 <0>         0.1110
     46 H16        -0.0753   -8.8577    1.0393 H         1 <0>         0.1065
     47 H17        -2.3923   -7.7161   -0.5855 H         1 <0>         0.1008
     48 H18        -1.9510   -8.1454    2.4062 H         1 <0>         0.0842
     49 H19        -2.0200   -6.5763    1.5670 H         1 <0>         0.1292
     50 H20        -4.1933   -7.1102    2.6365 H         1 <0>         0.1305
     51 H21        -4.3491   -7.0538    0.8648 H         1 <0>         0.1298
     52 H22        -4.5273  -10.6231    0.4035 H         1 <0>         0.1317
     53 H23        -4.5371   -9.0316   -0.3924 H         1 <0>         0.1292
     54 H24        -2.3621  -10.1750   -0.7206 H         1 <0>         0.1143
     55 H25        -2.1546  -10.2876    1.0445 H         1 <0>         0.0906
     56 H26        -6.3449   -8.4111    1.1065 H         1 <0>         0.1216
     57 H27        -6.2377   -9.9959    1.9098 H         1 <0>         0.1234
     58 H28        -6.0947   -8.5017    2.8665 H         1 <0>         0.1236
     59 H29        -3.9702   -9.4941    2.4487 H         1 <0>         0.4235
@<TRIPOS>BOND
     1    1    2 1
     2    1   31 1
     3    1   32 1
     4    1   33 1
     5    2    6 1
     6    2    3 2
     7    3    4 1
     8    3   34 1
     9    4    5 2
    10    4   35 1
    11    5    6 1
    12    5    7 1
    13    7   12 ar
    14    7    8 ar
    15    8    9 ar
    16    9   10 ar
    17    9   20 1
    18   10   11 ar
    19   10   36 1
    20   11   12 ar
    21   11   13 1
    22   13   17 1
    23   13   14 1
    24   14   15 2
    25   14   19 1
    26   15   16 1
    27   15   37 1
    28   16   17 2
    29   16   18 1
    30   18   38 1
    31   18   39 1
    32   18   40 1
    33   19   41 1
    34   19   42 1
    35   19   43 1
    36   20   21 am
    37   20   44 1
    38   21   22 2
    39   21   23 1
    40   23   24 1
    41   23   45 1
    42   23   46 1
    43   24   29 1
    44   24   25 1
    45   24   47 1
    46   25   26 1
    47   25   48 1
    48   25   49 1
    49   26   27 1
    50   26   50 1
    51   26   51 1
    52   27   28 1
    53   27   30 1
    54   27   59 1
    55   28   29 1
    56   28   52 1
    57   28   53 1
    58   29   54 1
    59   29   55 1
    60   30   56 1
    61   30   57 1
    62   30   58 1
