@<TRIPOS>MOLECULE
CHEMBL452454
   74    78     0     0     0
SMALL
USER_CHARGES

@<TRIPOS>ATOM
      1 C1          0.0154    1.3836    0.0915 C.3       1 <0>        -0.1488
      2 C2          0.0277   -0.1461    0.0631 C.3       1 <0>        -0.1410
      3 C3         -1.4105   -0.6679    0.0671 C.3       1 <0>         0.1190
      4 N1         -1.3987   -2.1326    0.0399 N.am      1 <0>        -0.5194
      5 C4         -1.3987   -2.8047   -1.1756 C.2       1 <0>         0.1506
      6 C5         -1.4078   -2.3880   -2.5095 C.2       1 <0>        -0.1934
      7 C6         -1.4020   -3.5045   -3.2969 C.2       1 <0>         0.1463
      8 N2         -1.3896   -4.6108   -2.4942 N.pl3     1 <0>        -0.5016
      9 H1         -1.3831   -5.5317   -2.7986 H         1 <0>         0.4298
     10 C7         -1.3874   -4.1972   -1.1788 C.2       1 <0>        -0.1021
     11 C8         -1.3773   -4.8803    0.0585 C.2       1 <0>         0.5866
     12 O1         -1.3669   -6.0980    0.0886 O.2       1 <0>        -0.5161
     13 N3         -1.3789   -4.1713    1.2052 N.am      1 <0>        -0.5484
     14 C9         -1.3821   -2.8274    1.1933 C.2       1 <0>         0.7004
     15 O2         -1.3772   -2.2245    2.2494 O.2       1 <0>        -0.5375
     16 C10        -1.3684   -4.8789    2.4880 C.3       1 <0>         0.1132
     17 C11         0.0777   -5.1134    2.9293 C.3       1 <0>        -0.1370
     18 C12         0.0886   -5.8524    4.2690 C.3       1 <0>        -0.1473
     19 C13        -1.4086   -3.5146   -4.7753 C.ar      1 <0>        -0.0213
     20 C14        -1.4160   -2.3123   -5.4843 C.ar      1 <0>        -0.0912
     21 C15        -1.4217   -2.3287   -6.8638 C.ar      1 <0>        -0.0855
     22 C16        -1.4200   -3.5333   -7.5444 C.ar      1 <0>        -0.0884
     23 C17        -1.4131   -4.7286   -6.8476 C.ar      1 <0>        -0.0846
     24 C18        -1.4016   -4.7263   -5.4680 C.ar      1 <0>        -0.1125
     25 C19        -1.4262   -3.5435   -9.0513 C.3       1 <0>         0.1255
     26 O3         -0.0809   -3.5417   -9.5332 O.3       1 <0>        -0.3576
     27 C20         0.0900   -3.5501  -10.8687 C.2       1 <0>         0.6521
     28 O4         -0.8767   -3.5587  -11.6049 O.2       1 <0>        -0.5663
     29 N4          1.3333   -3.5490  -11.3890 N.am      1 <0>        -0.5927
     30 C21         2.5116   -3.5448  -10.5107 C.3       1 <0>         0.0963
     31 C22         3.4018   -4.7381  -10.8794 C.3       1 <0>         0.1062
     32 N5          3.6035   -4.7415  -12.3351 N.pl3     1 <0>        -0.6278
     33 C23         2.4251   -4.7457  -13.2134 C.3       1 <0>         0.1050
     34 C24         1.5349   -3.5581  -12.8447 C.3       1 <0>         0.1119
     35 C25         4.8919   -4.7403  -12.8743 C.ar      1 <0>         0.2312
     36 C26         5.9959   -4.6199  -12.0393 C.ar      1 <0>        -0.1955
     37 C27         7.2687   -4.6195  -12.5749 C.ar      1 <0>        -0.0564
     38 C28         7.4459   -4.7384  -13.9412 C.ar      1 <0>        -0.1693
     39 C29         6.3489   -4.8585  -14.7762 C.ar      1 <0>         0.0163
     40 C30         5.0724   -4.8653  -14.2455 C.ar      1 <0>        -0.1935
     41 Cl1         6.5762   -5.0068  -16.4909 Cl        1 <0>        -0.0692
     42 H2          1.0400    1.7553    0.0886 H         1 <0>         0.0611
     43 H3         -0.5098    1.7590   -0.7868 H         1 <0>         0.0579
     44 H4         -0.4929    1.7261    0.9928 H         1 <0>         0.0594
     45 H5          0.5360   -0.4887   -0.8383 H         1 <0>         0.0681
     46 H6          0.5529   -0.5216    0.9413 H         1 <0>         0.0696
     47 H7         -1.9188   -0.3254    0.9684 H         1 <0>         0.1001
     48 H8         -1.9357   -0.2925   -0.8112 H         1 <0>         0.0928
     49 H9         -1.4175   -1.3653   -2.8563 H         1 <0>         0.1595
     50 H10        -1.8844   -4.2793    3.2379 H         1 <0>         0.1019
     51 H11        -1.8749   -5.8378    2.3781 H         1 <0>         0.1003
     52 H12         0.5937   -5.7130    2.1794 H         1 <0>         0.0666
     53 H13         0.5841   -4.1545    3.0391 H         1 <0>         0.0686
     54 H14        -0.4179   -6.8113    4.1591 H         1 <0>         0.0587
     55 H15         1.1188   -6.0195    4.5833 H         1 <0>         0.0611
     56 H16        -0.4274   -5.2528    5.0188 H         1 <0>         0.0595
     57 H17        -1.4177   -1.3714   -4.9542 H         1 <0>         0.1370
     58 H18        -1.4278   -1.3992   -7.4136 H         1 <0>         0.1338
     59 H19        -1.4126   -5.6655   -7.3848 H         1 <0>         0.1314
     60 H20        -1.3917   -5.6599   -4.9253 H         1 <0>         0.1241
     61 H21        -1.9382   -4.4378   -9.4065 H         1 <0>         0.0804
     62 H22        -1.9449   -2.6579   -9.4185 H         1 <0>         0.0815
     63 H23         3.0674   -2.6174  -10.6487 H         1 <0>         0.0782
     64 H24         2.1938   -3.6327   -9.4718 H         1 <0>         0.1047
     65 H25         4.3646   -4.6452  -10.3769 H         1 <0>         0.0998
     66 H26         2.9156   -5.6650  -10.5752 H         1 <0>         0.0712
     67 H27         2.7429   -4.6578  -14.2523 H         1 <0>         0.1010
     68 H28         1.8693   -5.6731  -13.0754 H         1 <0>         0.0719
     69 H29         0.5723   -3.6547  -13.3468 H         1 <0>         0.1094
     70 H30         2.0196   -2.6316  -13.1527 H         1 <0>         0.0796
     71 H31         5.8586   -4.5264  -10.9721 H         1 <0>         0.1291
     72 H32         8.1268   -4.5260  -11.9259 H         1 <0>         0.1322
     73 H33         8.4424   -4.7370  -14.3575 H         1 <0>         0.1303
     74 H34         4.2166   -4.9635  -14.8968 H         1 <0>         0.1334
@<TRIPOS>BOND
     1    1    2 1
     2    1   42 1
     3    1   43 1
     4    1   44 1
     5    2    3 1
     6    2   45 1
     7    2   46 1
     8    3    4 1
     9    3   47 1
    10    3   48 1
    11    4   14 am
    12    4    5 1
    13    5   10 2
    14    5    6 1
    15    6    7 2
    16    6   49 1
    17    7    8 1
    18    7   19 1
    19    8    9 1
    20    8   10 1
    21   10   11 1
    22   11   12 2
    23   11   13 am
    24   13   14 am
    25   13   16 1
    26   14   15 2
    27   16   17 1
    28   16   50 1
    29   16   51 1
    30   17   18 1
    31   17   52 1
    32   17   53 1
    33   18   54 1
    34   18   55 1
    35   18   56 1
    36   19   24 ar
    37   19   20 ar
    38   20   21 ar
    39   20   57 1
    40   21   22 ar
    41   21   58 1
    42   22   23 ar
    43   22   25 1
    44   23   24 ar
    45   23   59 1
    46   24   60 1
    47   25   26 1
    48   25   61 1
    49   25   62 1
    50   26   27 1
    51   27   28 2
    52   27   29 am
    53   29   34 1
    54   29   30 1
    55   30   31 1
    56   30   63 1
    57   30   64 1
    58   31   32 1
    59   31   65 1
    60   31   66 1
    61   32   33 1
    62   32   35 1
    63   33   34 1
    64   33   67 1
    65   33   68 1
    66   34   69 1
    67   34   70 1
    68   35   40 ar
    69   35   36 ar
    70   36   37 ar
    71   36   71 1
    72   37   38 ar
    73   37   72 1
    74   38   39 ar
    75   38   73 1
    76   39   40 ar
    77   39   41 1
    78   40   74 1
