@<TRIPOS>MOLECULE
CHEMBL1093479
   33    37     0     0     0
SMALL
USER_CHARGES

@<TRIPOS>ATOM
      1 C1          0.6371    0.2650   -1.1961 C.ar      1 <0>        -0.0998
      2 C2          1.8243    0.9711   -1.2071 C.ar      1 <0>        -0.0620
      3 C3          2.3811    1.4094   -0.0131 C.ar      1 <0>         0.0921
      4 C4          1.7422    1.1362    1.1893 C.ar      1 <0>        -0.0466
      5 C5          0.5551    0.4295    1.1940 C.ar      1 <0>        -0.0937
      6 C6          0.0030   -0.0057    0.0022 C.ar      1 <0>        -0.0578
      7 I1         -0.4096    0.0160    3.0070 I         1 <0>        -0.0185
      8 N1          3.5850    2.1251   -0.0212 N.pl3     1 <0>        -0.4101
      9 C7          4.7817    1.4462    0.0631 C.2       1 <0>         0.3462
     10 C8          5.9319    2.2318    0.0481 C.2       1 <0>        -0.2116
     11 C9          7.2048    1.6649    0.1280 C.2       1 <0>         0.3710
     12 N2          8.4410    2.1394    0.1367 N.2       1 <0>        -0.5031
     13 C10         9.3114    1.1308    0.2331 C.2       1 <0>         0.3607
     14 N3          8.6516   -0.0131    0.2882 N.2       1 <0>        -0.2779
     15 N4          7.2890    0.2955    0.2227 N.pl3     1 <0>        -0.3351
     16 C11         6.1477   -0.4350    0.2339 C.2       1 <0>         0.4295
     17 N5          4.9693    0.1050    0.1582 N.2       1 <0>        -0.4750
     18 C12        10.7821    1.2718    0.2715 C.2       1 <0>         0.0318
     19 C13        11.6789    0.2544    0.3639 C.2       1 <0>        -0.1276
     20 C14        12.9597    0.8415    0.3683 C.2       1 <0>        -0.2202
     21 C15        12.7833    2.1745    0.2794 C.2       1 <0>         0.0024
     22 O1         11.4668    2.4305    0.2152 O.3       1 <0>        -0.1522
     23 S1          5.2976    3.8834   -0.0828 S.3       1 <0>         0.2147
     24 C16         3.5601    3.4701   -0.1169 C.2       1 <0>         0.2445
     25 S2          2.2088    4.5143   -0.2385 S.2       1 <0>        -0.3351
     26 H1          0.2014   -0.0721   -2.1251 H         1 <0>         0.1468
     27 H2          2.3192    1.1819   -2.1437 H         1 <0>         0.1346
     28 H3          2.1731    1.4754    2.1197 H         1 <0>         0.1336
     29 H4         -0.9251   -0.5580    0.0081 H         1 <0>         0.1415
     30 H5          6.2213   -1.5099    0.3082 H         1 <0>         0.2367
     31 H6         11.4532   -0.8001    0.4228 H         1 <0>         0.1627
     32 H7         13.9042    0.3215    0.4314 H         1 <0>         0.1616
     33 H8         13.5702    2.9138    0.2585 H         1 <0>         0.2160
@<TRIPOS>BOND
     1    1    6 ar
     2    1    2 ar
     3    1   26 1
     4    2    3 ar
     5    2   27 1
     6    3    4 ar
     7    3    8 1
     8    4    5 ar
     9    4   28 1
    10    5    6 ar
    11    5    7 1
    12    6   29 1
    13    8   24 1
    14    8    9 1
    15    9   17 1
    16    9   10 2
    17   10   11 1
    18   10   23 1
    19   11   15 1
    20   11   12 2
    21   12   13 1
    22   13   14 2
    23   13   18 1
    24   14   15 1
    25   15   16 1
    26   16   17 2
    27   16   30 1
    28   18   22 1
    29   18   19 2
    30   19   20 1
    31   19   31 1
    32   20   21 2
    33   20   32 1
    34   21   22 1
    35   21   33 1
    36   23   24 1
    37   24   25 2
