@<TRIPOS>MOLECULE
CHEMBL1086847
   28    31     0     0     0
SMALL
USER_CHARGES

@<TRIPOS>ATOM
      1 C1         -0.0167    1.3824    0.0096 C.ar      1 <0>        -0.0980
      2 C2          1.1644    2.0974    0.0022 C.ar      1 <0>        -0.1017
      3 C3          2.3816    1.4343   -0.0129 C.ar      1 <0>        -0.0543
      4 C4          2.4138    0.0464   -0.0207 C.ar      1 <0>        -0.1405
      5 C5          1.2127   -0.6823   -0.0131 C.ar      1 <0>        -0.0435
      6 C6          0.0021   -0.0041    0.0020 C.ar      1 <0>        -0.0659
      7 C7          1.5394   -2.1308   -0.0239 C.ar      1 <0>         0.3078
      8 C8          2.9419   -2.2728   -0.0381 C.ar      1 <0>        -0.3102
      9 C9          3.4867   -3.5680   -0.0502 C.ar      1 <0>         0.3748
     10 N1          2.6520   -4.6104   -0.0477 N.ar      1 <0>        -0.5685
     11 C10         1.3415   -4.4306   -0.0342 C.ar      1 <0>         0.6068
     12 N2          0.7883   -3.2215   -0.0225 N.ar      1 <0>        -0.5549
     13 N3          0.5189   -5.5378   -0.0322 N.pl3     1 <0>        -0.8029
     14 C11         4.9479   -3.7717   -0.0657 C.2       1 <0>         0.0511
     15 N4          5.9223   -2.8709   -0.0649 N.2       1 <0>        -0.4085
     16 C12         7.1628   -3.2934   -0.0808 C.2       1 <0>         0.0048
     17 C13         7.4217   -4.6257   -0.0976 C.2       1 <0>        -0.2579
     18 S1          5.8771   -5.2956   -0.0828 S.3       1 <0>         0.2084
     19 C14         3.5357   -0.9262   -0.0366 C.2       1 <0>         0.4498
     20 O1          4.7212   -0.6603   -0.0469 O.2       1 <0>        -0.3741
     21 H1         -0.9611    1.9062    0.0260 H         1 <0>         0.1394
     22 H2          1.1399    3.1771    0.0079 H         1 <0>         0.1398
     23 H3          3.3037    1.9965   -0.0191 H         1 <0>         0.1401
     24 H4         -0.9260   -0.5564    0.0082 H         1 <0>         0.1395
     25 H5          0.9039   -6.4280   -0.0406 H         1 <0>         0.4215
     26 H6         -0.4446   -5.4261   -0.0224 H         1 <0>         0.4213
     27 H7          7.9767   -2.5835   -0.0809 H         1 <0>         0.1722
     28 H8          8.3771   -5.1289   -0.1118 H         1 <0>         0.2038
@<TRIPOS>BOND
     1    1    6 ar
     2    1    2 ar
     3    1   21 1
     4    2    3 ar
     5    2   22 1
     6    3    4 ar
     7    3   23 1
     8    4   19 1
     9    4    5 ar
    10    5    6 ar
    11    5    7 1
    12    6   24 1
    13    7   12 ar
    14    7    8 ar
    15    8    9 ar
    16    8   19 1
    17    9   10 ar
    18    9   14 1
    19   10   11 ar
    20   11   12 ar
    21   11   13 1
    22   13   25 1
    23   13   26 1
    24   14   18 1
    25   14   15 2
    26   15   16 1
    27   16   17 2
    28   16   27 1
    29   17   18 1
    30   17   28 1
    31   19   20 2
