@<TRIPOS>MOLECULE
CHEMBL260615
   33    35     0     0     0
SMALL
USER_CHARGES

@<TRIPOS>ATOM
      1 C1         -0.0167    1.3792    0.0096 C.ar      1 <0>        -0.0942
      2 C2          1.1685    2.0928    0.0021 C.ar      1 <0>        -0.1250
      3 C3          2.3774    1.4277   -0.0130 C.ar      1 <0>        -0.0639
      4 C4          2.4029    0.0333   -0.0207 C.ar      1 <0>        -0.0721
      5 C5          1.2046   -0.6805   -0.0131 C.ar      1 <0>        -0.0887
      6 C6          0.0021   -0.0041    0.0020 C.ar      1 <0>        -0.1206
      7 C7          3.6972   -0.6868   -0.0375 C.ar      1 <0>         0.3137
      8 C8          3.8455   -1.9109    0.6459 C.ar      1 <0>        -0.2121
      9 C9          5.1012   -2.5516    0.5944 C.ar      1 <0>         0.4965
     10 N1          6.0850   -1.9807   -0.0901 N.ar      1 <0>        -0.5726
     11 C10         5.9009   -0.8275   -0.7185 C.ar      1 <0>         0.4416
     12 N2          4.7373   -0.1924   -0.7018 N.ar      1 <0>        -0.5420
     13 C11         7.0319   -0.2315   -1.4686 C.ar      1 <0>        -0.0612
     14 C12         6.8680    0.9829   -2.1337 C.ar      1 <0>        -0.0611
     15 C13         7.9246    1.5329   -2.8304 C.ar      1 <0>        -0.1332
     16 C14         9.1444    0.8815   -2.8701 C.ar      1 <0>        -0.0908
     17 C15         9.3129   -0.3237   -2.2121 C.ar      1 <0>        -0.1339
     18 C16         8.2654   -0.8803   -1.5070 C.ar      1 <0>        -0.0625
     19 N3          5.3036   -3.7520    1.2452 N.pl3     1 <0>        -0.8188
     20 C17         2.7535   -2.4868    1.3715 C.1       1 <0>         0.2633
     21 N4          1.8873   -2.9437    1.9472 N.1       1 <0>        -0.4064
     22 H1         -0.9604    1.9042    0.0260 H         1 <0>         0.1289
     23 H2          1.1475    3.1726    0.0078 H         1 <0>         0.1317
     24 H3          3.3020    1.9858   -0.0192 H         1 <0>         0.1354
     25 H4          1.2180   -1.7604   -0.0194 H         1 <0>         0.1229
     26 H5         -0.9264   -0.5557    0.0079 H         1 <0>         0.1295
     27 H6          5.9160    1.4920   -2.1039 H         1 <0>         0.1397
     28 H7          7.7989    2.4735   -3.3460 H         1 <0>         0.1298
     29 H8          9.9682    1.3154   -3.4173 H         1 <0>         0.1267
     30 H9         10.2674   -0.8278   -2.2469 H         1 <0>         0.1291
     31 H10         8.3995   -1.8188   -0.9897 H         1 <0>         0.1375
     32 H11         4.5792   -4.1619    1.7434 H         1 <0>         0.4154
     33 H12         6.1704   -4.1857    1.2045 H         1 <0>         0.4171
@<TRIPOS>BOND
     1    1    6 ar
     2    1    2 ar
     3    1   22 1
     4    2    3 ar
     5    2   23 1
     6    3    4 ar
     7    3   24 1
     8    4    5 ar
     9    4    7 1
    10    5    6 ar
    11    5   25 1
    12    6   26 1
    13    7   12 ar
    14    7    8 ar
    15    8    9 ar
    16    8   20 1
    17    9   10 ar
    18    9   19 1
    19   10   11 ar
    20   11   12 ar
    21   11   13 1
    22   13   18 ar
    23   13   14 ar
    24   14   15 ar
    25   14   27 1
    26   15   16 ar
    27   15   28 1
    28   16   17 ar
    29   16   29 1
    30   17   18 ar
    31   17   30 1
    32   18   31 1
    33   19   32 1
    34   19   33 1
    35   20   21 3
