@<TRIPOS>MOLECULE
CHEMBL240847
   71    77     0     0     0
SMALL
USER_CHARGES

@<TRIPOS>ATOM
      1 C1          0.0044    1.3952    0.1345 C.2       1 <0>        -0.2204
      2 C2          1.3477    1.8201    0.1159 C.2       1 <0>        -0.1274
      3 C3          2.1133    0.6971    0.0882 C.2       1 <0>         0.0275
      4 O1          1.2920   -0.3705    0.0895 O.3       1 <0>        -0.1521
      5 C4          0.0164    0.0478    0.1174 C.2       1 <0>         0.0054
      6 C5          3.5904    0.6550    0.0614 C.2       1 <0>         0.3637
      7 N1          4.3338   -0.4584    0.0289 N.2       1 <0>        -0.5060
      8 C6          5.6108   -0.1372    0.0120 C.2       1 <0>         0.4005
      9 C7          6.8585   -0.9007   -0.0229 C.2       1 <0>        -0.2578
     10 C8          7.1797   -2.2697   -0.0528 C.2       1 <0>         0.1535
     11 N2          8.4789   -2.3884   -0.0775 N.2       1 <0>        -0.2679
     12 N3          9.0643   -1.1163   -0.0653 N.pl3     1 <0>        -0.3746
     13 C9          8.0672   -0.1880   -0.0314 C.2       1 <0>         0.3750
     14 N4          8.0449    1.1518   -0.0070 N.2       1 <0>        -0.5798
     15 C10         6.9258    1.8327    0.0250 C.2       1 <0>         0.7057
     16 N5          5.7013    1.2303    0.0342 N.pl3     1 <0>        -0.3788
     17 N6          4.3850    1.7087    0.0600 N.2       1 <0>        -0.2939
     18 N7          6.9875    3.2065    0.0486 N.pl3     1 <0>        -0.7949
     19 C11        10.5014   -0.8323   -0.0844 C.3       1 <0>         0.1253
     20 C12        10.9774   -0.7078   -1.5331 C.3       1 <0>        -0.0302
     21 N8         12.4184   -0.4230   -1.5523 N.4       1 <0>        -0.3774
     22 C13        12.6647    0.8876   -0.9378 C.3       1 <0>        -0.0304
     23 C14        14.1744    1.1354   -0.8532 C.3       1 <0>         0.1026
     24 N9         14.7489    0.9778   -2.1983 N.pl3     1 <0>        -0.6454
     25 C15        14.4182   -0.2395   -2.9552 C.3       1 <0>         0.1030
     26 C16        12.8969   -0.4224   -2.9405 C.3       1 <0>        -0.0207
     27 C17        15.5858    1.9584   -2.7427 C.ar      1 <0>         0.1569
     28 C18        15.7954    3.1496   -2.0605 C.ar      1 <0>        -0.1423
     29 C19        16.6219    4.1166   -2.5983 C.ar      1 <0>        -0.1044
     30 C20        17.2425    3.8983   -3.8193 C.ar      1 <0>         0.1022
     31 C21        17.0333    2.7089   -4.5016 C.ar      1 <0>        -0.1641
     32 C22        16.2116    1.7385   -3.9626 C.ar      1 <0>        -0.1418
     33 O2         18.0562    4.8511   -4.3482 O.3       1 <0>        -0.3051
     34 C23        18.6626    4.5595   -5.6089 C.3       1 <0>         0.0621
     35 C24        19.5358    5.7396   -6.0399 C.3       1 <0>         0.0634
     36 O3         20.6220    5.8882   -5.1233 O.3       1 <0>        -0.3510
     37 C25        21.5032    6.9687   -5.4366 C.3       1 <0>         0.0118
     38 C26        23.0008    6.7453   -5.2170 C.3       1 <0>        -0.1873
     39 C27        22.2169    7.6585   -4.2723 C.3       1 <0>        -0.1809
     40 H1         -0.8694    2.0293    0.1620 H         1 <0>         0.1624
     41 H2          1.7008    2.8408    0.1219 H         1 <0>         0.1609
     42 H3         -0.8553   -0.5898    0.1257 H         1 <0>         0.2173
     43 H4          6.4710   -3.0846   -0.0548 H         1 <0>         0.2095
     44 H5          7.8483    3.6535    0.0414 H         1 <0>         0.4309
     45 H6          6.1702    3.7284    0.0723 H         1 <0>         0.4314
     46 H7         10.6941    0.1020    0.4430 H         1 <0>         0.1167
     47 H8         11.0387   -1.6439    0.4061 H         1 <0>         0.1223
     48 H9         10.7846   -1.6420   -2.0605 H         1 <0>         0.1428
     49 H10        10.4401    0.1039   -2.0236 H         1 <0>         0.1355
     50 H11        12.2020    1.6662   -1.5443 H         1 <0>         0.1363
     51 H12        12.2368    0.9053    0.0646 H         1 <0>         0.1406
     52 H13        14.3600    2.1469   -0.4919 H         1 <0>         0.1274
     53 H14        14.6269    0.4122   -0.1747 H         1 <0>         0.0886
     54 H15        14.7648   -0.1370   -3.9835 H         1 <0>         0.1262
     55 H16        14.8952   -1.1016   -2.4889 H         1 <0>         0.0883
     56 H17        12.6402   -1.3700   -3.4139 H         1 <0>         0.1420
     57 H18        12.4272    0.3958   -3.4864 H         1 <0>         0.1334
     58 H19        15.3120    3.3200   -1.1099 H         1 <0>         0.1298
     59 H20        16.7848    5.0433   -2.0680 H         1 <0>         0.1370
     60 H21        17.5166    2.5398   -5.4525 H         1 <0>         0.1328
     61 H22        16.0527    0.8105   -4.4917 H         1 <0>         0.1257
     62 H23        19.2794    3.6655   -5.5173 H         1 <0>         0.0728
     63 H24        17.8862    4.3904   -6.3550 H         1 <0>         0.0796
     64 H25        19.9272    5.5556   -7.0404 H         1 <0>         0.0768
     65 H26        18.9379    6.6510   -6.0456 H         1 <0>         0.0652
     66 H27        21.2051    7.5883   -6.2824 H         1 <0>         0.1123
     67 H28        23.3139    5.7742   -4.8335 H         1 <0>         0.1004
     68 H29        23.6883    7.2179   -5.9184 H         1 <0>         0.1024
     69 H30        22.3887    8.7319   -4.3523 H         1 <0>         0.1028
     70 H31        22.0143    7.2883   -3.2673 H         1 <0>         0.1009
     71 H32        12.9075   -1.1341   -1.0295 H         1 <0>         0.4251
@<TRIPOS>BOND
     1    1    5 2
     2    1    2 1
     3    1   40 1
     4    2    3 2
     5    2   41 1
     6    3    4 1
     7    3    6 1
     8    4    5 1
     9    5   42 1
    10    6   17 2
    11    6    7 1
    12    7    8 2
    13    8   16 1
    14    8    9 1
    15    9   13 2
    16    9   10 1
    17   10   11 2
    18   10   43 1
    19   11   12 1
    20   12   13 1
    21   12   19 1
    22   13   14 1
    23   14   15 2
    24   15   16 1
    25   15   18 1
    26   16   17 1
    27   18   44 1
    28   18   45 1
    29   19   20 1
    30   19   46 1
    31   19   47 1
    32   20   21 1
    33   20   48 1
    34   20   49 1
    35   21   26 1
    36   21   22 1
    37   21   71 1
    38   22   23 1
    39   22   50 1
    40   22   51 1
    41   23   24 1
    42   23   52 1
    43   23   53 1
    44   24   25 1
    45   24   27 1
    46   25   26 1
    47   25   54 1
    48   25   55 1
    49   26   56 1
    50   26   57 1
    51   27   32 ar
    52   27   28 ar
    53   28   29 ar
    54   28   58 1
    55   29   30 ar
    56   29   59 1
    57   30   31 ar
    58   30   33 1
    59   31   32 ar
    60   31   60 1
    61   32   61 1
    62   33   34 1
    63   34   35 1
    64   34   62 1
    65   34   63 1
    66   35   36 1
    67   35   64 1
    68   35   65 1
    69   36   37 1
    70   37   39 1
    71   37   38 1
    72   37   66 1
    73   38   39 1
    74   38   67 1
    75   38   68 1
    76   39   69 1
    77   39   70 1
