@<TRIPOS>MOLECULE
CHEMBL608663
   56    59     0     0     0
SMALL
USER_CHARGES

@<TRIPOS>ATOM
      1 C1         -0.0164    1.3601    0.0095 C.2       1 <0>         0.2490
      2 N1          1.2003    1.8207    0.0004 N.2       1 <0>        -0.4505
      3 C2          2.0748    0.7851   -0.0135 C.ar      1 <0>        -0.1454
      4 C3          3.4767    0.6778   -0.0279 C.ar      1 <0>         0.5382
      5 N2          4.0210   -0.5334   -0.0400 N.ar      1 <0>        -0.5915
      6 C4          3.2657   -1.6250   -0.0386 C.ar      1 <0>         0.6506
      7 N3          1.9437   -1.5691   -0.0253 N.ar      1 <0>        -0.5997
      8 C5          1.3165   -0.3973   -0.0126 C.ar      1 <0>         0.3564
      9 N4          0.0021   -0.0041    0.0020 N.pl3     1 <0>        -0.4734
     10 C6         -1.1669   -0.8870    0.0089 C.3       1 <0>         0.3155
     11 C7         -1.5541   -1.2554    1.4583 C.3       1 <0>         0.0792
     12 H1         -1.1953   -0.4969    2.1540 H         1 <0>         0.0861
     13 C8         -3.0988   -1.2844    1.4384 C.3       1 <0>         0.0470
     14 H2         -3.5037   -0.5402    2.1242 H         1 <0>         0.0869
     15 C9         -3.4622   -0.9301   -0.0207 C.3       1 <0>         0.0505
     16 H3         -3.6137   -1.8377   -0.6051 H         1 <0>         0.0992
     17 O1         -2.3213   -0.1969   -0.5174 O.3       1 <0>        -0.3462
     18 C10        -4.7178   -0.0568   -0.0599 C.3       1 <0>         0.0822
     19 O2         -5.1032    0.1626   -1.4183 O.3       1 <0>        -0.5634
     20 O3         -3.5795   -2.5874    1.7747 O.3       1 <0>        -0.5394
     21 O4         -1.0309   -2.5390    1.8055 O.3       1 <0>        -0.5267
     22 N5          3.8829   -2.8658   -0.0520 N.pl3     1 <0>        -0.5483
     23 N6          5.2811   -2.9525   -0.0667 N.2       1 <0>        -0.2095
     24 C11         5.8512   -4.0986   -0.0791 C.2       1 <0>         0.0622
     25 C12         7.3552   -4.1919   -0.0949 C.3       1 <0>        -0.0617
     26 C13         7.8249   -5.0561    1.0770 C.3       1 <0>        -0.0809
     27 C14         7.4763   -4.3614    2.3948 C.3       1 <0>        -0.1132
     28 C15         7.9460   -5.2255    3.5668 C.3       1 <0>        -0.1204
     29 C16         9.4607   -5.4234    3.4797 C.3       1 <0>        -0.1211
     30 C17         9.8093   -6.1181    2.1618 C.3       1 <0>        -0.1199
     31 C18         9.3396   -5.2539    0.9899 C.3       1 <0>        -0.1140
     32 N7          4.2721    1.8100   -0.0299 N.pl3     1 <0>        -0.8142
     33 H4         -0.9091    1.9678    0.0254 H         1 <0>         0.2209
     34 H5         -0.9653   -1.7869   -0.5722 H         1 <0>         0.1210
     35 H6         -5.5266   -0.5593    0.4706 H         1 <0>         0.0664
     36 H7         -4.5096    0.9006    0.4179 H         1 <0>         0.0612
     37 H8         -5.8940    0.7099   -1.5193 H         1 <0>         0.3866
     38 H9         -4.5436   -2.6624    1.7773 H         1 <0>         0.3870
     39 H10        -1.2444   -2.8204    2.7057 H         1 <0>         0.3897
     40 H11         3.3468   -3.6742   -0.0513 H         1 <0>         0.4019
     41 H12         5.2543   -4.9987   -0.0783 H         1 <0>         0.1072
     42 H13         7.6815   -4.6425   -1.0323 H         1 <0>         0.0891
     43 H14         7.7822   -3.1932   -0.0039 H         1 <0>         0.0852
     44 H15         7.3289   -6.0258    1.0351 H         1 <0>         0.0739
     45 H16         7.9724   -3.3917    2.4367 H         1 <0>         0.0644
     46 H17         6.3973   -4.2204    2.4569 H         1 <0>         0.0582
     47 H18         7.6977   -4.7306    4.5056 H         1 <0>         0.0596
     48 H19         7.4500   -6.1952    3.5249 H         1 <0>         0.0603
     49 H20         9.9568   -4.4537    3.5215 H         1 <0>         0.0615
     50 H21         9.7953   -6.0390    4.3146 H         1 <0>         0.0595
     51 H22        10.8884   -6.2590    2.0997 H         1 <0>         0.0617
     52 H23         9.3132   -7.0878    2.1200 H         1 <0>         0.0613
     53 H24         9.5880   -5.7489    0.0510 H         1 <0>         0.0642
     54 H25         9.8357   -4.2843    1.0317 H         1 <0>         0.0648
     55 H26         3.8636    2.6897   -0.0213 H         1 <0>         0.4199
     56 H27         5.2382    1.7240   -0.0398 H         1 <0>         0.4109
@<TRIPOS>BOND
     1    1    9 1
     2    1    2 2
     3    1   33 1
     4    2    3 1
     5    3    8 ar
     6    3    4 ar
     7    4    5 ar
     8    4   32 1
     9    5    6 ar
    10    6    7 ar
    11    6   22 1
    12    7    8 ar
    13    8    9 1
    14    9   10 1
    15   10   17 1
    16   10   11 1
    17   10   34 1
    18   11   12 1
    19   11   13 1
    20   11   21 1
    21   13   14 1
    22   13   15 1
    23   13   20 1
    24   15   16 1
    25   15   17 1
    26   15   18 1
    27   18   19 1
    28   18   35 1
    29   18   36 1
    30   19   37 1
    31   20   38 1
    32   21   39 1
    33   22   23 1
    34   22   40 1
    35   23   24 2
    36   24   25 1
    37   24   41 1
    38   25   26 1
    39   25   42 1
    40   25   43 1
    41   26   31 1
    42   26   27 1
    43   26   44 1
    44   27   28 1
    45   27   45 1
    46   27   46 1
    47   28   29 1
    48   28   47 1
    49   28   48 1
    50   29   30 1
    51   29   49 1
    52   29   50 1
    53   30   31 1
    54   30   51 1
    55   30   52 1
    56   31   53 1
    57   31   54 1
    58   32   55 1
    59   32   56 1
