@<TRIPOS>MOLECULE
CHEMBL175961
   67    72     0     0     0
SMALL
USER_CHARGES

@<TRIPOS>ATOM
      1 C1         -0.2496    1.3208   -2.6544 C.3       1 <0>         0.0302
      2 O1         -0.7066   -0.0244   -2.4999 O.3       1 <0>        -0.3848
      3 C2         -1.4791   -0.2436   -1.3178 C.3       1 <0>         0.0617
      4 C3         -1.9126   -1.7096   -1.2564 C.3       1 <0>         0.0632
      5 O2         -0.7595   -2.5417   -1.1142 O.3       1 <0>        -0.3103
      6 C4         -0.9712   -3.8833   -1.0438 C.ar      1 <0>         0.0748
      7 C5         -2.2618   -4.3861   -1.1162 C.ar      1 <0>        -0.1586
      8 C6         -2.4776   -5.7483   -1.0448 C.ar      1 <0>        -0.1594
      9 C7         -1.4021   -6.6147   -0.9005 C.ar      1 <0>         0.1853
     10 C8         -0.1103   -6.1104   -0.8282 C.ar      1 <0>        -0.1585
     11 C9          0.1042   -4.7483   -0.9054 C.ar      1 <0>        -0.0997
     12 N1         -1.6199   -7.9951   -0.8276 N.pl3     1 <0>        -0.6301
     13 C10        -0.4868   -8.9305   -0.7964 C.3       1 <0>         0.1075
     14 C11        -0.6194   -9.8197    0.4461 C.3       1 <0>         0.1058
     15 N2         -1.9853  -10.3599    0.4934 N.pl3     1 <0>        -0.6268
     16 C12        -3.1184   -9.4245    0.4622 C.3       1 <0>         0.1050
     17 C13        -2.9857   -8.5351   -0.7747 C.3       1 <0>         0.1085
     18 C14        -2.2027  -11.7380    0.5662 C.ar      1 <0>         0.2124
     19 C15        -1.1268  -12.6043    0.7228 C.ar      1 <0>        -0.1784
     20 C16        -1.3376  -13.9681    0.7952 C.ar      1 <0>        -0.0729
     21 C17        -2.6177  -14.4785    0.7124 C.ar      1 <0>        -0.1450
     22 C18        -3.7033  -13.6174    0.5552 C.ar      1 <0>        -0.0102
     23 C19        -3.4922  -12.2417    0.4879 C.ar      1 <0>        -0.1505
     24 C20        -5.0783  -14.1635    0.4661 C.2       1 <0>         0.2519
     25 C21        -5.2852  -15.5289    0.5448 C.2       1 <0>        -0.2140
     26 C22        -6.6030  -16.0129    0.4570 C.2       1 <0>         0.3532
     27 N3         -7.1362  -17.2240    0.4943 N.2       1 <0>        -0.5237
     28 C23        -8.4636  -17.1332    0.3645 C.2       1 <0>         0.3538
     29 N4         -8.8059  -15.8632    0.2416 N.2       1 <0>        -0.3220
     30 N5         -7.6250  -15.1120    0.2975 N.pl3     1 <0>        -0.3615
     31 C24        -7.3524  -13.7794    0.2273 C.2       1 <0>         0.6528
     32 N6         -6.1208  -13.3320    0.3149 N.2       1 <0>        -0.5487
     33 N7         -8.3859  -12.8861    0.0668 N.pl3     1 <0>        -0.8082
     34 C25        -9.4017  -18.2753    0.3592 C.2       1 <0>         0.0366
     35 C26        -9.0641  -19.5855    0.4904 C.2       1 <0>        -0.1267
     36 C27       -10.2638  -20.3219    0.4292 C.2       1 <0>        -0.2189
     37 C28       -11.2641  -19.4339    0.2653 C.2       1 <0>        -0.0079
     38 O3        -10.7403  -18.1982    0.2293 O.3       1 <0>        -0.1609
     39 H1         -1.1067    1.9926   -2.7012 H         1 <0>         0.0417
     40 H2          0.3781    1.5911   -1.8053 H         1 <0>         0.0430
     41 H3          0.3284    1.4046   -3.5747 H         1 <0>         0.0880
     42 H4         -0.8769   -0.0057   -0.4409 H         1 <0>         0.0614
     43 H5         -2.3617    0.3958   -1.3368 H         1 <0>         0.0709
     44 H6         -2.5747   -1.8573   -0.4033 H         1 <0>         0.0754
     45 H7         -2.4388   -1.9716   -2.1743 H         1 <0>         0.0690
     46 H8         -3.0983   -3.7121   -1.2280 H         1 <0>         0.1256
     47 H9         -3.4827   -6.1397   -1.1008 H         1 <0>         0.1244
     48 H10         0.7268   -6.7835   -0.7160 H         1 <0>         0.1293
     49 H11         1.1092   -4.3562   -0.8540 H         1 <0>         0.1301
     50 H12        -0.4994   -9.5504   -1.6929 H         1 <0>         0.0660
     51 H13         0.4478   -8.3716   -0.7483 H         1 <0>         0.0929
     52 H14         0.0965  -10.6396    0.3874 H         1 <0>         0.0932
     53 H15        -0.4289   -9.2279    1.3415 H         1 <0>         0.0673
     54 H16        -4.0530   -9.9835    0.4140 H         1 <0>         0.0949
     55 H17        -3.1058   -8.8046    1.3587 H         1 <0>         0.0664
     56 H18        -3.7011   -7.7150   -0.7122 H         1 <0>         0.0910
     57 H19        -3.1803   -9.1261   -1.6696 H         1 <0>         0.0652
     58 H20        -0.1234  -12.2104    0.7878 H         1 <0>         0.1260
     59 H21        -0.4983  -14.6368    0.9166 H         1 <0>         0.1294
     60 H22        -2.7784  -15.5450    0.7690 H         1 <0>         0.1290
     61 H23        -4.3300  -11.5702    0.3710 H         1 <0>         0.1367
     62 H24        -4.4544  -16.2075    0.6703 H         1 <0>         0.1687
     63 H25        -9.2991  -13.2070    0.0047 H         1 <0>         0.4243
     64 H26        -8.2014  -11.9352    0.0158 H         1 <0>         0.4289
     65 H27        -8.0686  -19.9849    0.6168 H         1 <0>         0.1633
     66 H28       -10.3629  -21.3950    0.5002 H         1 <0>         0.1597
     67 H29       -12.3133  -19.6757    0.1812 H         1 <0>         0.2133
@<TRIPOS>BOND
     1    1    2 1
     2    1   39 1
     3    1   40 1
     4    1   41 1
     5    2    3 1
     6    3    4 1
     7    3   42 1
     8    3   43 1
     9    4    5 1
    10    4   44 1
    11    4   45 1
    12    5    6 1
    13    6   11 ar
    14    6    7 ar
    15    7    8 ar
    16    7   46 1
    17    8    9 ar
    18    8   47 1
    19    9   10 ar
    20    9   12 1
    21   10   11 ar
    22   10   48 1
    23   11   49 1
    24   12   17 1
    25   12   13 1
    26   13   14 1
    27   13   50 1
    28   13   51 1
    29   14   15 1
    30   14   52 1
    31   14   53 1
    32   15   16 1
    33   15   18 1
    34   16   17 1
    35   16   54 1
    36   16   55 1
    37   17   56 1
    38   17   57 1
    39   18   23 ar
    40   18   19 ar
    41   19   20 ar
    42   19   58 1
    43   20   21 ar
    44   20   59 1
    45   21   22 ar
    46   21   60 1
    47   22   23 ar
    48   22   24 1
    49   23   61 1
    50   24   32 1
    51   24   25 2
    52   25   26 1
    53   25   62 1
    54   26   30 1
    55   26   27 2
    56   27   28 1
    57   28   29 2
    58   28   34 1
    59   29   30 1
    60   30   31 1
    61   31   32 2
    62   31   33 1
    63   33   63 1
    64   33   64 1
    65   34   38 1
    66   34   35 2
    67   35   36 1
    68   35   65 1
    69   36   37 2
    70   36   66 1
    71   37   38 1
    72   37   67 1
