@<TRIPOS>MOLECULE
CHEMBL1222306
   43    46     0     0     0
SMALL
USER_CHARGES

@<TRIPOS>ATOM
      1 C1         -0.0017    1.4924    0.1950 C.3       1 <0>        -0.0743
      2 C2          0.0063   -0.0067    0.0410 C.2       1 <0>         0.2971
      3 N1         -1.0332   -0.7851    0.1299 N.2       1 <0>        -0.5415
      4 C3         -0.6667   -2.0679   -0.0606 C.2       1 <0>         0.3509
      5 N2          0.6295   -2.1044   -0.2745 N.2       1 <0>        -0.3166
      6 O1          1.0834   -0.7604   -0.2162 O.3       1 <0>        -0.1049
      7 C4         -1.5682   -3.2343   -0.0332 C.2       1 <0>        -0.2339
      8 C5         -1.2679   -4.5922   -0.1054 C.2       1 <0>         0.2019
      9 N3         -2.3006   -5.4174   -0.0549 N.2       1 <0>        -0.5460
     10 C6         -3.5312   -4.9687    0.0569 C.2       1 <0>         0.2498
     11 S1         -3.3468   -3.2974    0.1096 S.3       1 <0>         0.3340
     12 N4         -4.7067   -5.7022    0.1219 N.am      1 <0>        -0.6100
     13 C7         -5.8908   -5.0689    0.2367 C.2       1 <0>         0.5138
     14 O2         -5.9285   -3.8576    0.2832 O.2       1 <0>        -0.4821
     15 C8         -7.1679   -5.8658    0.3073 C.3       1 <0>        -0.0891
     16 C9         -8.3398   -4.9267    0.4322 C.ar      1 <0>        -0.0812
     17 C10        -8.7810   -4.5343    1.6821 C.ar      1 <0>        -0.1015
     18 C11        -9.8560   -3.6729    1.7966 C.ar      1 <0>        -0.1182
     19 C12       -10.4895   -3.2033    0.6612 C.ar      1 <0>        -0.1127
     20 C13       -10.0477   -3.5949   -0.5887 C.ar      1 <0>        -0.1183
     21 C14        -8.9700   -4.4530   -0.7034 C.ar      1 <0>        -0.1016
     22 C15         0.1241   -5.0830   -0.2317 C.ar      1 <0>        -0.0376
     23 C16         1.1268   -4.5631    0.5865 C.ar      1 <0>        -0.0655
     24 C17         2.4213   -5.0247    0.4645 C.ar      1 <0>        -0.1175
     25 C18         2.7257   -6.0008   -0.4675 C.ar      1 <0>        -0.1034
     26 C19         1.7355   -6.5203   -1.2820 C.ar      1 <0>        -0.1265
     27 C20         0.4361   -6.0710   -1.1654 C.ar      1 <0>        -0.0787
     28 H1          1.0101    1.8764    0.0652 H         1 <0>         0.1001
     29 H2         -0.6564    1.9315   -0.5577 H         1 <0>         0.1103
     30 H3         -0.3647    1.7535    1.1891 H         1 <0>         0.1104
     31 H4         -4.6765   -6.6711    0.0847 H         1 <0>         0.4287
     32 H5         -7.2748   -6.4618   -0.5991 H         1 <0>         0.1164
     33 H6         -7.1370   -6.5256    1.1744 H         1 <0>         0.1165
     34 H7         -8.2861   -4.9012    2.5691 H         1 <0>         0.1213
     35 H8        -10.2012   -3.3669    2.7732 H         1 <0>         0.1242
     36 H9        -11.3298   -2.5309    0.7507 H         1 <0>         0.1235
     37 H10       -10.5429   -3.2284   -1.4758 H         1 <0>         0.1242
     38 H11        -8.6225   -4.7560   -1.6800 H         1 <0>         0.1212
     39 H12         0.8905   -3.8006    1.3139 H         1 <0>         0.1162
     40 H13         3.1987   -4.6229    1.0975 H         1 <0>         0.1257
     41 H14         3.7406   -6.3584   -0.5598 H         1 <0>         0.1248
     42 H15         1.9792   -7.2822   -2.0077 H         1 <0>         0.1261
     43 H16        -0.3369   -6.4803   -1.7990 H         1 <0>         0.1243
@<TRIPOS>BOND
     1    1    2 1
     2    1   28 1
     3    1   29 1
     4    1   30 1
     5    2    6 1
     6    2    3 2
     7    3    4 1
     8    4    5 2
     9    4    7 1
    10    5    6 1
    11    7   11 1
    12    7    8 2
    13    8    9 1
    14    8   22 1
    15    9   10 2
    16   10   11 1
    17   10   12 1
    18   12   13 am
    19   12   31 1
    20   13   14 2
    21   13   15 1
    22   15   16 1
    23   15   32 1
    24   15   33 1
    25   16   21 ar
    26   16   17 ar
    27   17   18 ar
    28   17   34 1
    29   18   19 ar
    30   18   35 1
    31   19   20 ar
    32   19   36 1
    33   20   21 ar
    34   20   37 1
    35   21   38 1
    36   22   27 ar
    37   22   23 ar
    38   23   24 ar
    39   23   39 1
    40   24   25 ar
    41   24   40 1
    42   25   26 ar
    43   25   41 1
    44   26   27 ar
    45   26   42 1
    46   27   43 1
