@<TRIPOS>MOLECULE
CHEMBL122806
   37    39     0     0     0
SMALL
USER_CHARGES

@<TRIPOS>ATOM
      1 C1         -0.0167    1.3782    0.0096 C.ar      1 <0>        -0.0984
      2 C2          1.1665    2.0886    0.0021 C.ar      1 <0>        -0.0955
      3 C3          2.3863    1.4111   -0.0132 C.ar      1 <0>        -0.0702
      4 C4          2.4038    0.0163   -0.0209 C.ar      1 <0>        -0.1139
      5 C5          1.2112   -0.6868   -0.0132 C.ar      1 <0>         0.1107
      6 C6          0.0021   -0.0041    0.0020 C.ar      1 <0>        -0.1259
      7 O1          1.2238   -2.0458   -0.0211 O.3       1 <0>        -0.4949
      8 C7          3.6568    2.1695   -0.0217 C.ar      1 <0>         0.1578
      9 C8          4.5277    2.1128   -1.1282 C.ar      1 <0>        -0.1502
     10 C9          5.7252    2.8509   -1.0917 C.ar      1 <0>         0.4978
     11 N1          6.0374    3.5894   -0.0387 N.ar      1 <0>        -0.5478
     12 C10         5.2496    3.6724    1.0227 C.ar      1 <0>         0.2408
     13 C11         4.0282    2.9737    1.0733 C.ar      1 <0>        -0.1130
     14 C12         3.1796    3.0746    2.2224 C.1       1 <0>         0.2563
     15 N2          2.5064    3.1547    3.1339 N.1       1 <0>        -0.3885
     16 S1          5.7331    4.6768    2.3873 S.3       1 <0>         0.0039
     17 C13         7.3308    5.3689    1.8783 C.3       1 <0>        -0.0217
     18 C14         7.8631    6.2601    2.9708 C.2       1 <0>         0.2018
     19 N3          7.6217    7.5830    3.0950 N.pl3     1 <0>        -0.5581
     20 H1          7.0791    8.1271    2.5030 H         1 <0>         0.4225
     21 C15         8.2854    8.0125    4.2124 C.2       1 <0>        -0.0363
     22 C16         8.9090    6.9381    4.7323 C.2       1 <0>        -0.0242
     23 N4          8.6291    5.8802    3.9566 N.2       1 <0>        -0.4641
     24 N5          6.5867    2.8037   -2.1693 N.pl3     1 <0>        -0.8196
     25 C17         4.1994    1.3160   -2.2718 C.1       1 <0>         0.2528
     26 N6          3.9389    0.6838   -3.1790 N.1       1 <0>        -0.3947
     27 H2         -0.9600    1.9037    0.0260 H         1 <0>         0.1366
     28 H3          1.1484    3.1685    0.0078 H         1 <0>         0.1321
     29 H4          3.3449   -0.5135   -0.0331 H         1 <0>         0.1343
     30 H5         -0.9269   -0.5549    0.0083 H         1 <0>         0.1354
     31 H6          1.2360   -2.4441    0.8599 H         1 <0>         0.3945
     32 H7          8.0360    4.5583    1.6948 H         1 <0>         0.1310
     33 H8          7.2006    5.9508    0.9659 H         1 <0>         0.1147
     34 H9          8.3053    9.0196    4.6021 H         1 <0>         0.1835
     35 H10         9.5237    6.9291    5.6203 H         1 <0>         0.1763
     36 H11         6.3648    2.2644   -2.9444 H         1 <0>         0.4167
     37 H12         7.4140    3.3099   -2.1513 H         1 <0>         0.4173
@<TRIPOS>BOND
     1    1    6 ar
     2    1    2 ar
     3    1   27 1
     4    2    3 ar
     5    2   28 1
     6    3    4 ar
     7    3    8 1
     8    4    5 ar
     9    4   29 1
    10    5    6 ar
    11    5    7 1
    12    6   30 1
    13    7   31 1
    14    8   13 ar
    15    8    9 ar
    16    9   10 ar
    17    9   25 1
    18   10   11 ar
    19   10   24 1
    20   11   12 ar
    21   12   13 ar
    22   12   16 1
    23   13   14 1
    24   14   15 3
    25   16   17 1
    26   17   18 1
    27   17   32 1
    28   17   33 1
    29   18   23 2
    30   18   19 1
    31   19   20 1
    32   19   21 1
    33   21   22 2
    34   21   34 1
    35   22   23 1
    36   22   35 1
    37   24   36 1
    38   24   37 1
    39   25   26 3
