@<TRIPOS>MOLECULE
CHEMBL610443
   52    56     0     0     0
SMALL
USER_CHARGES

@<TRIPOS>ATOM
      1 C1         -0.0164    1.3601    0.0095 C.2       1 <0>         0.2496
      2 N1          1.2003    1.8207    0.0004 N.2       1 <0>        -0.4506
      3 C2          2.0748    0.7852   -0.0135 C.ar      1 <0>        -0.1444
      4 C3          3.4769    0.6781   -0.0279 C.ar      1 <0>         0.5384
      5 N2          4.0212   -0.5330   -0.0400 N.ar      1 <0>        -0.5916
      6 C4          3.2659   -1.6248   -0.0386 C.ar      1 <0>         0.6500
      7 N3          1.9437   -1.5689   -0.0257 N.ar      1 <0>        -0.5984
      8 C5          1.3165   -0.3972   -0.0126 C.ar      1 <0>         0.3561
      9 N4          0.0021   -0.0041    0.0020 N.pl3     1 <0>        -0.4732
     10 C6         -1.1669   -0.8870    0.0089 C.3       1 <0>         0.3154
     11 C7         -1.5541   -1.2554    1.4583 C.3       1 <0>         0.0792
     12 H1         -1.1953   -0.4969    2.1540 H         1 <0>         0.0861
     13 C8         -3.0988   -1.2844    1.4384 C.3       1 <0>         0.0470
     14 H2         -3.5037   -0.5403    2.1242 H         1 <0>         0.0870
     15 C9         -3.4621   -0.9302   -0.0207 C.3       1 <0>         0.0505
     16 H3         -3.6137   -1.8377   -0.6051 H         1 <0>         0.0992
     17 O1         -2.3213   -0.1969   -0.5174 O.3       1 <0>        -0.3461
     18 C10        -4.7178   -0.0568   -0.0599 C.3       1 <0>         0.0822
     19 O2         -5.1032    0.1626   -1.4183 O.3       1 <0>        -0.5634
     20 O3         -3.5795   -2.5875    1.7747 O.3       1 <0>        -0.5394
     21 O4         -1.0309   -2.5390    1.8055 O.3       1 <0>        -0.5268
     22 N5          3.8829   -2.8651   -0.0516 N.pl3     1 <0>        -0.5420
     23 N6          5.2812   -2.9518   -0.0658 N.2       1 <0>        -0.2076
     24 C11         5.8602   -4.1157   -0.0780 C.2       1 <0>         0.1099
     25 C12         7.3242   -4.2064   -0.0929 C.2       1 <0>        -0.1145
     26 C13         8.1769   -3.1726   -0.0897 C.2       1 <0>        -0.0980
     27 C14         9.6043   -3.7333   -0.1094 C.3       1 <0>        -0.0830
     28 C15         9.7840   -4.3677    1.3063 C.3       1 <0>        -0.1198
     29 C16         8.7990   -5.5619    1.3026 C.3       1 <0>        -0.1224
     30 C17         8.1463   -5.5011   -0.1081 C.3       1 <0>        -0.0573
     31 C18         9.3745   -5.0263   -0.9738 C.3       1 <0>        -0.1192
     32 N7          4.2722    1.8103   -0.0299 N.pl3     1 <0>        -0.8139
     33 H4         -0.9091    1.9677    0.0254 H         1 <0>         0.2212
     34 H5         -0.9653   -1.7869   -0.5722 H         1 <0>         0.1212
     35 H6         -5.5266   -0.5593    0.4706 H         1 <0>         0.0665
     36 H7         -4.5096    0.9005    0.4179 H         1 <0>         0.0612
     37 H8         -5.8940    0.7099   -1.5193 H         1 <0>         0.3866
     38 H9         -4.5436   -2.6625    1.7773 H         1 <0>         0.3870
     39 H10        -1.2443   -2.8204    2.7057 H         1 <0>         0.3898
     40 H11         3.3469   -3.6735   -0.0508 H         1 <0>         0.4031
     41 H12         5.2634   -5.0158   -0.0771 H         1 <0>         0.1160
     42 H13         7.9062   -2.1272   -0.0760 H         1 <0>         0.1381
     43 H14        10.3857   -3.0526   -0.4475 H         1 <0>         0.1053
     44 H15        10.8078   -4.7161    1.4426 H         1 <0>         0.0709
     45 H16         9.5154   -3.6522    2.0834 H         1 <0>         0.0674
     46 H17         9.3355   -6.5012    1.4371 H         1 <0>         0.0711
     47 H18         8.0431   -5.4372    2.0779 H         1 <0>         0.0669
     48 H19         7.6237   -6.4011   -0.4322 H         1 <0>         0.1031
     49 H20         9.0992   -4.7960   -2.0030 H         1 <0>         0.0764
     50 H21        10.2142   -5.7190   -0.9188 H         1 <0>         0.0783
     51 H22         3.8636    2.6900   -0.0213 H         1 <0>         0.4201
     52 H23         5.2383    1.7244   -0.0398 H         1 <0>         0.4109
@<TRIPOS>BOND
     1    1    9 1
     2    1    2 2
     3    1   33 1
     4    2    3 1
     5    3    8 ar
     6    3    4 ar
     7    4    5 ar
     8    4   32 1
     9    5    6 ar
    10    6    7 ar
    11    6   22 1
    12    7    8 ar
    13    8    9 1
    14    9   10 1
    15   10   17 1
    16   10   11 1
    17   10   34 1
    18   11   12 1
    19   11   13 1
    20   11   21 1
    21   13   14 1
    22   13   15 1
    23   13   20 1
    24   15   16 1
    25   15   17 1
    26   15   18 1
    27   18   19 1
    28   18   35 1
    29   18   36 1
    30   19   37 1
    31   20   38 1
    32   21   39 1
    33   22   23 1
    34   22   40 1
    35   23   24 2
    36   24   25 1
    37   24   41 1
    38   25   30 1
    39   25   26 2
    40   26   27 1
    41   26   42 1
    42   27   31 1
    43   27   28 1
    44   27   43 1
    45   28   29 1
    46   28   44 1
    47   28   45 1
    48   29   30 1
    49   29   46 1
    50   29   47 1
    51   30   31 1
    52   30   48 1
    53   31   49 1
    54   31   50 1
    55   32   51 1
    56   32   52 1
