@<TRIPOS>MOLECULE
CHEMBL1093313
   32    35     0     0     0
SMALL
USER_CHARGES

@<TRIPOS>ATOM
      1 C1         -0.0132    1.3829    0.0618 C.ar      1 <0>        -0.1053
      2 C2          0.4609    0.7612    1.2022 C.ar      1 <0>        -0.1043
      3 C3          1.6656    0.0858    1.1721 C.ar      1 <0>        -0.1038
      4 C4          2.3999    0.0316   -0.0038 C.ar      1 <0>         0.0786
      5 C5          1.9220    0.6562   -1.1467 C.ar      1 <0>        -0.1025
      6 C6          0.7168    1.3304   -1.1114 C.ar      1 <0>        -0.1064
      7 O1          3.5856   -0.6319   -0.0359 O.3       1 <0>        -0.2079
      8 C7          3.5613   -1.9812    0.0613 C.2       1 <0>         0.5969
      9 N1          4.7112   -2.6513    0.1558 N.2       1 <0>        -0.5839
     10 C8          4.7177   -3.9690    0.2523 C.2       1 <0>         0.7101
     11 N2          3.5331   -4.6452    0.2548 N.pl3     1 <0>        -0.4116
     12 C9          2.3579   -3.9469    0.1573 C.2       1 <0>         0.5375
     13 N3          2.3994   -2.6096    0.0663 N.2       1 <0>        -0.5679
     14 N4          1.3695   -4.8254    0.1817 N.2       1 <0>        -0.5035
     15 C10         1.8694   -6.0626    0.2914 C.2       1 <0>         0.3706
     16 N5          3.1867   -5.9984    0.3392 N.2       1 <0>        -0.3136
     17 C11         1.0713   -7.3050    0.3502 C.2       1 <0>         0.0320
     18 C12        -0.2848   -7.3855    0.2965 C.2       1 <0>        -0.1201
     19 C13        -0.6140   -8.7526    0.3845 C.2       1 <0>        -0.2193
     20 C14         0.5453   -9.4321    0.4866 C.2       1 <0>        -0.0035
     21 O2          1.5614   -8.5549    0.4605 O.3       1 <0>        -0.1597
     22 N6          5.9030   -4.6497    0.3485 N.pl3     1 <0>        -0.7793
     23 H1         -0.9574    1.9066    0.0862 H         1 <0>         0.1311
     24 H2         -0.1109    0.8040    2.1174 H         1 <0>         0.1325
     25 H3          2.0356   -0.3993    2.0632 H         1 <0>         0.1261
     26 H4          2.4919    0.6158   -2.0632 H         1 <0>         0.1337
     27 H5          0.3443    1.8168   -2.0008 H         1 <0>         0.1348
     28 H6         -0.9760   -6.5609    0.2045 H         1 <0>         0.1647
     29 H7         -1.6075   -9.1758    0.3728 H         1 <0>         0.1607
     30 H8          0.6413  -10.5044    0.5713 H         1 <0>         0.2145
     31 H9          6.7428   -4.1642    0.3459 H         1 <0>         0.4362
     32 H10         5.9024   -5.6171    0.4192 H         1 <0>         0.4323
@<TRIPOS>BOND
     1    1    6 ar
     2    1    2 ar
     3    1   23 1
     4    2    3 ar
     5    2   24 1
     6    3    4 ar
     7    3   25 1
     8    4    5 ar
     9    4    7 1
    10    5    6 ar
    11    5   26 1
    12    6   27 1
    13    7    8 1
    14    8   13 2
    15    8    9 1
    16    9   10 2
    17   10   11 1
    18   10   22 1
    19   11   16 1
    20   11   12 1
    21   12   13 1
    22   12   14 2
    23   14   15 1
    24   15   16 2
    25   15   17 1
    26   17   21 1
    27   17   18 2
    28   18   19 1
    29   18   28 1
    30   19   20 2
    31   19   29 1
    32   20   21 1
    33   20   30 1
    34   22   31 1
    35   22   32 1
