@<TRIPOS>MOLECULE
CHEMBL369373
   52    56     0     0     0
SMALL
USER_CHARGES

@<TRIPOS>ATOM
      1 C1          0.2850    1.7975   -1.2834 C.3       1 <0>         0.0884
      2 N1          0.2431    0.3638   -0.9852 N.pl3     1 <0>        -0.3415
      3 C2          0.1911   -0.6343   -1.8919 C.2       1 <0>         0.1189
      4 C3          0.1657   -1.8058   -1.2153 C.2       1 <0>        -0.2987
      5 C4          0.2034   -1.5135    0.1530 C.2       1 <0>         0.1282
      6 N2          0.2559   -0.2129    0.2914 N.2       1 <0>        -0.2533
      7 Cl1         0.1908   -2.6750    1.4431 Cl        1 <0>         0.0218
      8 C5          0.1067   -3.1819   -1.8268 C.3       1 <0>         0.0772
      9 N3          1.4261   -3.8197   -1.7256 N.4       1 <0>        -0.3873
     10 C6          2.4039   -3.0728   -2.5453 C.3       1 <0>        -0.0044
     11 C7          3.3408   -4.1586   -3.1307 C.3       1 <0>        -0.1461
     12 C8          2.3457   -5.3171   -3.4036 C.3       1 <0>        -0.1169
     13 C9          1.3488   -5.2026   -2.2312 C.3       1 <0>         0.0357
     14 H1          1.6232   -5.9020   -1.4415 H         1 <0>         0.1390
     15 C10        -0.0694   -5.4985   -2.7231 C.3       1 <0>         0.0759
     16 N4         -0.1525   -6.8932   -3.1635 N.2       1 <0>        -0.6290
     17 C11        -1.3422   -7.3928   -3.6513 C.2       1 <0>         0.5506
     18 N5         -1.4058   -8.6679   -4.0444 N.pl3     1 <0>        -0.5712
     19 C12        -2.5320   -9.1722   -4.5154 C.cat     1 <0>         0.7588
     20 N6         -3.6382   -8.3778   -4.5987 N.pl3     1 <0>        -0.4136
     21 C13        -3.5626   -7.0710   -4.1928 C.2       1 <0>         0.5540
     22 N7         -2.4007   -6.6018   -3.7160 N.2       1 <0>        -0.5844
     23 N8         -4.7550   -6.5280   -4.3747 N.2       1 <0>        -0.5245
     24 C14        -5.5926   -7.4408   -4.8831 C.2       1 <0>         0.4048
     25 N9         -4.9515   -8.5841   -5.0356 N.2       1 <0>        -0.3319
     26 C15        -7.0120   -7.2050   -5.2199 C.2       1 <0>         0.0165
     27 C16        -7.6826   -6.0316   -5.0729 C.2       1 <0>        -0.1091
     28 C17        -9.0009   -6.2594   -5.5146 C.2       1 <0>        -0.2216
     29 C18        -9.0693   -7.5473   -5.9054 C.2       1 <0>         0.0074
     30 O1         -7.8646   -8.1139   -5.7315 O.3       1 <0>        -0.1595
     31 N10        -2.5888  -10.4812   -4.9170 N.pl3     1 <0>        -0.7757
     32 H2          1.3221    2.1177   -1.3834 H         1 <0>         0.0918
     33 H3         -0.2462    1.9904   -2.2155 H         1 <0>         0.1038
     34 H4         -0.1897    2.3512   -0.4734 H         1 <0>         0.1038
     35 H5          0.1725   -0.5187   -2.9655 H         1 <0>         0.1954
     36 H6         -0.6299   -3.7844   -1.2951 H         1 <0>         0.1416
     37 H7         -0.1786   -3.1015   -2.8757 H         1 <0>         0.1417
     38 H8          1.8962   -2.5371   -3.3473 H         1 <0>         0.1280
     39 H9          2.9693   -2.3790   -1.9230 H         1 <0>         0.1272
     40 H10         3.8049   -3.8165   -4.0557 H         1 <0>         0.1135
     41 H11         4.0962   -4.4560   -2.4033 H         1 <0>         0.0962
     42 H12         1.8377   -5.1722   -4.3570 H         1 <0>         0.0951
     43 H13         2.8583   -6.2788   -3.3811 H         1 <0>         0.1111
     44 H14        -0.7777   -5.3308   -1.9118 H         1 <0>         0.0687
     45 H15        -0.3096   -4.8391   -3.5572 H         1 <0>         0.0685
     46 H16        -7.2822   -5.1041   -4.6910 H         1 <0>         0.1653
     47 H17        -9.8047   -5.5384   -5.5356 H         1 <0>         0.1630
     48 H18        -9.9463   -8.0405   -6.2977 H         1 <0>         0.2172
     49 H19        -1.7997  -11.0419   -4.8562 H         1 <0>         0.4389
     50 H20        -3.4183  -10.8470   -5.2622 H         1 <0>         0.4507
     51 H21        -0.6169   -9.2290   -3.9837 H         1 <0>         0.4495
     52 H22         1.7279   -3.8265   -0.7628 H         1 <0>         0.4207
@<TRIPOS>BOND
     1    1    2 1
     2    1   32 1
     3    1   33 1
     4    1   34 1
     5    2    6 1
     6    2    3 1
     7    3    4 2
     8    3   35 1
     9    4    5 1
    10    4    8 1
    11    5    6 2
    12    5    7 1
    13    8    9 1
    14    8   36 1
    15    8   37 1
    16    9   13 1
    17    9   10 1
    18    9   52 1
    19   10   11 1
    20   10   38 1
    21   10   39 1
    22   11   12 1
    23   11   40 1
    24   11   41 1
    25   12   13 1
    26   12   42 1
    27   12   43 1
    28   13   14 1
    29   13   15 1
    30   15   16 1
    31   15   44 1
    32   15   45 1
    33   16   17 1
    34   17   22 2
    35   17   18 1
    36   18   19 2
    37   18   51 1
    38   19   20 1
    39   19   31 1
    40   20   25 1
    41   20   21 1
    42   21   22 1
    43   21   23 2
    44   23   24 1
    45   24   25 2
    46   24   26 1
    47   26   30 1
    48   26   27 2
    49   27   28 1
    50   27   46 1
    51   28   29 2
    52   28   47 1
    53   29   30 1
    54   29   48 1
    55   31   49 1
    56   31   50 1
