@<TRIPOS>MOLECULE
CHEMBL17103
   69    73     0     0     0
SMALL
USER_CHARGES

@<TRIPOS>ATOM
      1 C1         -0.0169    1.3960    0.0097 C.ar      1 <0>        -0.1214
      2 C2          1.1570    2.0944    0.0023 C.ar      1 <0>        -0.0544
      3 C3          2.3767    1.4121   -0.0135 C.ar      1 <0>        -0.0689
      4 C4          2.3972    0.0146   -0.0212 C.ar      1 <0>        -0.0869
      5 C5          1.2248   -0.6863   -0.0133 C.ar      1 <0>        -0.1242
      6 C6          0.0021   -0.0041    0.0020 C.ar      1 <0>         0.0013
      7 C7         -1.2605   -0.7570    0.0105 C.2       1 <0>        -0.1324
      8 C8         -1.2414   -2.1088    0.0031 C.2       1 <0>        -0.1444
      9 C9         -2.4578   -2.8342    0.0113 C.2       1 <0>         0.4969
     10 O1         -3.5271   -2.2368    0.0251 O.co2     1 <0>        -0.6904
     11 O2         -2.4405   -4.0590    0.0045 O.co2     1 <0>        -0.6948
     12 C10         3.6456    2.1688   -0.0225 C.2       1 <0>         0.3588
     13 N1          3.7501    3.4832   -0.0112 N.2       1 <0>        -0.4833
     14 H1          5.1052    0.6725   -0.0452 H         1 <0>         0.4355
     15 C11         5.0349    3.8342   -0.0239 C.2       1 <0>         0.3300
     16 C12         5.7899    2.6653   -0.0445 C.2       1 <0>        -0.1562
     17 N2          4.8911    1.6185   -0.0379 N.pl3     1 <0>        -0.5183
     18 C13         7.1992    2.7573   -0.0605 C.2       1 <0>         0.5936
     19 O3          7.8822    1.7490   -0.0791 O.2       1 <0>        -0.5145
     20 N3          7.7801    3.9750   -0.0554 N.am      1 <0>        -0.5469
     21 C14         7.0388    5.0959   -0.0350 C.2       1 <0>         0.7083
     22 O4          7.5981    6.1757   -0.0306 O.2       1 <0>        -0.5306
     23 N4          5.6934    5.0544   -0.0204 N.am      1 <0>        -0.5053
     24 C15         4.9236    6.3007    0.0007 C.3       1 <0>         0.1237
     25 C16         4.6731    6.7209    1.4503 C.3       1 <0>        -0.1007
     26 C17         3.7819    5.6831    2.1355 C.3       1 <0>        -0.1085
     27 C18         3.5314    6.1034    3.5852 C.3       1 <0>        -0.1188
     28 C19         2.8372    7.4666    3.6082 C.3       1 <0>        -0.1195
     29 C20         3.7284    8.5045    2.9231 C.3       1 <0>        -0.1168
     30 C21         3.9789    8.0842    1.4734 C.3       1 <0>        -0.1093
     31 C22         9.2414    4.0769   -0.0719 C.3       1 <0>         0.1190
     32 C23         9.7329    4.1267   -1.5200 C.3       1 <0>        -0.1008
     33 C24         9.2301    5.4094   -2.1854 C.3       1 <0>        -0.1069
     34 C25         9.7215    5.4592   -3.6334 C.3       1 <0>        -0.1202
     35 C26        11.2513    5.4399   -3.6538 C.3       1 <0>        -0.1191
     36 C27        11.7540    4.1572   -2.9884 C.3       1 <0>        -0.1178
     37 C28        11.2626    4.1074   -1.5403 C.3       1 <0>        -0.1093
     38 H2         -0.9592    1.9235    0.0260 H         1 <0>         0.1348
     39 H3          1.1427    3.1743    0.0082 H         1 <0>         0.1378
     40 H4          3.3404   -0.5113   -0.0338 H         1 <0>         0.1185
     41 H5          1.2409   -1.7662   -0.0196 H         1 <0>         0.1356
     42 H6         -2.2032   -0.2303    0.0227 H         1 <0>         0.1334
     43 H7         -0.2986   -2.6355   -0.0091 H         1 <0>         0.1025
     44 H8          5.4836    7.0823   -0.5127 H         1 <0>         0.0987
     45 H9          3.9693    6.1468   -0.5031 H         1 <0>         0.0989
     46 H10         5.6242    6.7886    1.9785 H         1 <0>         0.0738
     47 H11         2.8309    5.6154    1.6073 H         1 <0>         0.0729
     48 H12         4.2765    4.7119    2.1191 H         1 <0>         0.0558
     49 H13         2.8965    5.3640    4.0733 H         1 <0>         0.0613
     50 H14         4.4825    6.1710    4.1134 H         1 <0>         0.0557
     51 H15         1.8861    7.3990    3.0801 H         1 <0>         0.0635
     52 H16         2.6587    7.7660    4.6410 H         1 <0>         0.0587
     53 H17         3.2338    9.4756    2.9395 H         1 <0>         0.0621
     54 H18         4.6795    8.5721    3.4513 H         1 <0>         0.0598
     55 H19         4.6138    8.8236    0.9853 H         1 <0>         0.0644
     56 H20         3.0278    8.0165    0.9452 H         1 <0>         0.0669
     57 H21         9.5482    4.9849    0.4473 H         1 <0>         0.1020
     58 H22         9.6718    3.2093    0.4282 H         1 <0>         0.0998
     59 H23         9.3513    3.2621   -2.0631 H         1 <0>         0.0746
     60 H24         8.1403    5.4232   -2.1709 H         1 <0>         0.0541
     61 H25         9.6116    6.2741   -1.6423 H         1 <0>         0.0717
     62 H26         9.3400    4.5946   -4.1765 H         1 <0>         0.0577
     63 H27         9.3633    6.3730   -4.1075 H         1 <0>         0.0608
     64 H28        11.6014    5.4754   -4.6854 H         1 <0>         0.0594
     65 H29        11.6328    6.3046   -3.1107 H         1 <0>         0.0621
     66 H30        11.3725    3.2926   -3.5315 H         1 <0>         0.0613
     67 H31        12.8439    4.1435   -3.0029 H         1 <0>         0.0629
     68 H32        11.6441    4.9721   -0.9972 H         1 <0>         0.0665
     69 H33        11.6208    3.1936   -1.0663 H         1 <0>         0.0656
@<TRIPOS>BOND
     1    1    6 ar
     2    1    2 ar
     3    1   38 1
     4    2    3 ar
     5    2   39 1
     6    3    4 ar
     7    3   12 1
     8    4    5 ar
     9    4   40 1
    10    5    6 ar
    11    5   41 1
    12    6    7 1
    13    7    8 2
    14    7   42 1
    15    8    9 1
    16    8   43 1
    17    9   10 2
    18    9   11 1
    19   12   17 1
    20   12   13 2
    21   13   15 1
    22   14   17 1
    23   15   23 1
    24   15   16 2
    25   16   18 1
    26   16   17 1
    27   18   20 am
    28   18   19 2
    29   20   21 am
    30   20   31 1
    31   21   23 am
    32   21   22 2
    33   23   24 1
    34   24   25 1
    35   24   44 1
    36   24   45 1
    37   25   30 1
    38   25   26 1
    39   25   46 1
    40   26   27 1
    41   26   47 1
    42   26   48 1
    43   27   28 1
    44   27   49 1
    45   27   50 1
    46   28   29 1
    47   28   51 1
    48   28   52 1
    49   29   30 1
    50   29   53 1
    51   29   54 1
    52   30   55 1
    53   30   56 1
    54   31   32 1
    55   31   57 1
    56   31   58 1
    57   32   37 1
    58   32   33 1
    59   32   59 1
    60   33   34 1
    61   33   60 1
    62   33   61 1
    63   34   35 1
    64   34   62 1
    65   34   63 1
    66   35   36 1
    67   35   64 1
    68   35   65 1
    69   36   37 1
    70   36   66 1
    71   36   67 1
    72   37   68 1
    73   37   69 1
