@<TRIPOS>MOLECULE
CHEMBL462501
   33    36     0     0     0
SMALL
USER_CHARGES

@<TRIPOS>ATOM
      1 C1         -0.0167    1.3821    0.0096 C.ar      1 <0>        -0.0747
      2 C2          1.1937    2.0586    0.0017 C.ar      1 <0>        -0.1631
      3 C3          2.3701    1.3338   -0.0134 C.ar      1 <0>         0.1020
      4 N1          2.3500    0.0151   -0.0207 N.ar      1 <0>        -0.4620
      5 C4          1.2181   -0.6611   -0.0136 C.ar      1 <0>         0.0930
      6 C5          0.0021   -0.0041    0.0020 C.ar      1 <0>        -0.1481
      7 C6          1.2505   -2.1677   -0.0230 C.3       1 <0>         0.1910
      8 N2          2.0418   -2.6320   -1.1651 N.pl3     1 <0>        -0.3770
      9 C7          1.5800   -2.9014   -2.4240 C.ar      1 <0>         0.3583
     10 C8          2.7003   -3.3134   -3.1688 C.ar      1 <0>        -0.1525
     11 C9          2.5058   -3.6588   -4.5261 C.ar      1 <0>         0.4068
     12 N3          1.2765   -3.5780   -5.0324 N.ar      1 <0>        -0.5507
     13 C10         0.2528   -3.1835   -4.2878 C.ar      1 <0>         0.6199
     14 N4          0.3900   -2.8516   -3.0141 N.ar      1 <0>        -0.5810
     15 N5         -1.0046   -3.1170   -4.8632 N.pl3     1 <0>        -0.8041
     16 C11         3.6365   -4.0975   -5.3610 C.2       1 <0>        -0.0066
     17 C12         3.5838   -5.0288   -6.3544 C.2       1 <0>        -0.1236
     18 C13         4.8839   -5.1333   -6.8807 C.2       1 <0>        -0.2249
     19 C14         5.6605   -4.2711   -6.1920 C.2       1 <0>         0.0008
     20 O1          4.9031   -3.6437   -5.2798 O.3       1 <0>        -0.1487
     21 N6          3.7694   -3.2795   -2.3570 N.2       1 <0>        -0.1726
     22 N7          3.4225   -2.8813   -1.1829 N.2       1 <0>         0.0234
     23 H1         -0.9518    1.9222    0.0259 H         1 <0>         0.1396
     24 H2          1.2167    3.1384    0.0069 H         1 <0>         0.1391
     25 H3          3.3170    1.8532   -0.0197 H         1 <0>         0.1599
     26 H4         -0.9217   -0.5635    0.0082 H         1 <0>         0.1400
     27 H5          1.7018   -2.5272    0.9018 H         1 <0>         0.1235
     28 H6          0.2340   -2.5525   -0.1048 H         1 <0>         0.1198
     29 H7         -1.1247   -3.3567   -5.7954 H         1 <0>         0.4218
     30 H8         -1.7656   -2.8307   -4.3341 H         1 <0>         0.4201
     31 H9          2.7123   -5.5799   -6.6755 H         1 <0>         0.1593
     32 H10         5.2009   -5.7814   -7.6843 H         1 <0>         0.1583
     33 H11         6.7163   -4.1095   -6.3520 H         1 <0>         0.2131
@<TRIPOS>BOND
     1    1    6 ar
     2    1    2 ar
     3    1   23 1
     4    2    3 ar
     5    2   24 1
     6    3    4 ar
     7    3   25 1
     8    4    5 ar
     9    5    6 ar
    10    5    7 1
    11    6   26 1
    12    7    8 1
    13    7   27 1
    14    7   28 1
    15    8   22 1
    16    8    9 1
    17    9   14 ar
    18    9   10 ar
    19   10   11 ar
    20   10   21 1
    21   11   12 ar
    22   11   16 1
    23   12   13 ar
    24   13   14 ar
    25   13   15 1
    26   15   29 1
    27   15   30 1
    28   16   20 1
    29   16   17 2
    30   17   18 1
    31   17   31 1
    32   18   19 2
    33   18   32 1
    34   19   20 1
    35   19   33 1
    36   21   22 2
