@<TRIPOS>MOLECULE
CHEMBL442670
   36    40     0     0     0
SMALL
USER_CHARGES

@<TRIPOS>ATOM
      1 C1         -0.0162    1.3451    0.0094 C.2       1 <0>        -0.2250
      2 C2          1.3225    1.7763   -0.0010 C.2       1 <0>        -0.1232
      3 C3          2.0959    0.6543   -0.0144 C.2       1 <0>        -0.0077
      4 O1          1.2782   -0.4173   -0.0124 O.3       1 <0>        -0.1486
      5 C4          0.0021   -0.0041    0.0020 C.2       1 <0>         0.0013
      6 C5          3.5677    0.6188   -0.0291 C.ar      1 <0>         0.4089
      7 C6          4.2734   -0.4010    0.6510 C.ar      1 <0>        -0.1549
      8 C7          5.6790   -0.3802    0.5989 C.ar      1 <0>         0.3624
      9 N1          6.2899    0.5856   -0.0804 N.ar      1 <0>        -0.5804
     10 C8          5.5905    1.5202   -0.7032 C.ar      1 <0>         0.6222
     11 N2          4.2647    1.5429   -0.6876 N.ar      1 <0>        -0.5505
     12 N3          6.2669    2.5076   -1.3991 N.pl3     1 <0>        -0.8029
     13 N4          6.0998   -1.4584    1.3276 N.pl3     1 <0>        -0.3824
     14 N5          4.9441   -2.0995    1.7988 N.2       1 <0>         0.0038
     15 N6          3.9043   -1.4608    1.3883 N.2       1 <0>        -0.1671
     16 C9          7.4865   -1.8648    1.5687 C.3       1 <0>         0.1778
     17 C10         7.9940   -1.2001    2.8224 C.ar      1 <0>        -0.1043
     18 C11         7.8307   -1.8468    4.0480 C.ar      1 <0>        -0.0808
     19 C12         8.2680   -1.2960    5.2103 C.ar      1 <0>        -0.0614
     20 C13         8.9032   -0.0419    5.1861 C.ar      1 <0>         0.0331
     21 C14         9.0758    0.6394    3.8944 C.ar      1 <0>         0.0199
     22 C15         8.6036    0.0104    2.7290 C.ar      1 <0>        -0.0248
     23 N7          9.6918    1.7724    4.1907 N.2       1 <0>        -0.2630
     24 N8          9.8871    1.8197    5.4625 N.pl3     1 <0>        -0.1932
     25 N9          9.4401    0.7789    6.0744 N.2       1 <0>        -0.2699
     26 H1         10.3243    2.5601    5.9114 H         1 <0>         0.4743
     27 H2         -0.8933    1.9750    0.0252 H         1 <0>         0.1582
     28 H3          1.6703    2.7988    0.0008 H         1 <0>         0.1590
     29 H4         -0.8670   -0.6452    0.0072 H         1 <0>         0.2134
     30 H5          7.2366    2.5058   -1.4240 H         1 <0>         0.4209
     31 H6          5.7711    3.2012   -1.8618 H         1 <0>         0.4220
     32 H7          7.5325   -2.9473    1.6872 H         1 <0>         0.1211
     33 H8          8.1052   -1.5653    0.7227 H         1 <0>         0.1154
     34 H9          7.3435   -2.8104    4.0733 H         1 <0>         0.1422
     35 H10         8.1284   -1.8172    6.1458 H         1 <0>         0.1418
     36 H11         8.7210    0.4877    1.7674 H         1 <0>         0.1424
@<TRIPOS>BOND
     1    1    5 2
     2    1    2 1
     3    1   27 1
     4    2    3 2
     5    2   28 1
     6    3    4 1
     7    3    6 1
     8    4    5 1
     9    5   29 1
    10    6   11 ar
    11    6    7 ar
    12    7   15 1
    13    7    8 ar
    14    8    9 ar
    15    8   13 1
    16    9   10 ar
    17   10   11 ar
    18   10   12 1
    19   12   30 1
    20   12   31 1
    21   13   14 1
    22   13   16 1
    23   14   15 2
    24   16   32 1
    25   16   33 1
    26   16   17 1
    27   17   18 ar
    28   17   22 ar
    29   18   19 ar
    30   18   34 1
    31   19   20 ar
    32   19   35 1
    33   20   25 2
    34   20   21 ar
    35   21   22 ar
    36   21   23 2
    37   22   36 1
    38   23   24 1
    39   24   26 1
    40   24   25 1
