@<TRIPOS>MOLECULE
CHEMBL255647
   46    49     0     0     0
SMALL
USER_CHARGES

@<TRIPOS>ATOM
      1 C1         -0.0175    1.5029    0.0166 C.3       1 <0>        -0.0786
      2 C2          0.0028   -0.0040    0.0070 C.2       1 <0>         0.0194
      3 C3         -1.0824   -0.8047    0.0059 C.2       1 <0>        -0.2243
      4 C4         -0.6155   -2.1325   -0.0051 C.2       1 <0>        -0.1129
      5 C5          0.7437   -2.0698   -0.0102 C.2       1 <0>         0.0097
      6 O1          1.1032   -0.7711   -0.0078 O.3       1 <0>        -0.1512
      7 C6          1.6640   -3.2234   -0.0215 C.ar      1 <0>         0.4425
      8 N1          2.9730   -3.0056   -0.0200 N.ar      1 <0>        -0.5159
      9 C7          3.8329   -4.0240   -0.0299 C.ar      1 <0>         0.2837
     10 C8          3.3376   -5.3300   -0.0420 C.ar      1 <0>        -0.2206
     11 C9          1.9566   -5.5156   -0.0432 C.ar      1 <0>         0.4230
     12 N2          1.1603   -4.4527   -0.0274 N.ar      1 <0>        -0.4918
     13 N3          1.4187   -6.7984   -0.0550 N.am      1 <0>        -0.6547
     14 C10         0.0859   -6.9712    0.0470 C.2       1 <0>         0.5062
     15 O2         -0.6514   -6.0084    0.0563 O.2       1 <0>        -0.4588
     16 C11        -0.4881   -8.3608    0.1494 C.3       1 <0>        -0.1326
     17 C12        -2.0122   -8.2766    0.2535 C.3       1 <0>        -0.0654
     18 C13        -2.5862   -9.6663    0.3559 C.ar      1 <0>        -0.1197
     19 C14        -3.0245  -10.3188   -0.7810 C.ar      1 <0>        -0.0869
     20 C15        -3.5511  -11.5934   -0.6873 C.ar      1 <0>        -0.1275
     21 C16        -3.6399  -12.2171    0.5434 C.ar      1 <0>        -0.0923
     22 C17        -3.2020  -11.5670    1.6813 C.ar      1 <0>        -0.1522
     23 C18        -2.6694  -10.2920    1.5880 C.ar      1 <0>         0.1007
     24 F1         -2.2366   -9.6572    2.6993 F         1 <0>        -0.1367
     25 C19         5.2902   -3.7748   -0.0287 C.2       1 <0>         0.1212
     26 N4          6.2921   -4.6428   -0.0432 N.2       1 <0>        -0.4745
     27 C20         7.5397   -4.2436   -0.0394 C.2       1 <0>         0.0212
     28 C21         7.8256   -2.9122   -0.0202 C.2       1 <0>        -0.1940
     29 S1          6.1757   -2.2215   -0.0151 S.3       1 <0>         0.0957
     30 H1          1.0052    1.8800    0.0101 H         1 <0>         0.0792
     31 H2         -0.5439    1.8648   -0.8666 H         1 <0>         0.0906
     32 H3         -0.5284    1.8536    0.9133 H         1 <0>         0.0907
     33 H4         -2.1146   -0.4872    0.0127 H         1 <0>         0.1566
     34 H5         -1.2194   -3.0279   -0.0084 H         1 <0>         0.1660
     35 H6          4.0091   -6.1758   -0.0506 H         1 <0>         0.1642
     36 H7          2.0027   -7.5685   -0.1367 H         1 <0>         0.4255
     37 H8         -0.2155   -8.9328   -0.7375 H         1 <0>         0.1030
     38 H9         -0.0900   -8.8539    1.0362 H         1 <0>         0.1013
     39 H10        -2.2848   -7.7047    1.1404 H         1 <0>         0.0866
     40 H11        -2.4103   -7.7836   -0.6333 H         1 <0>         0.0892
     41 H12        -2.9559   -9.8324   -1.7428 H         1 <0>         0.1336
     42 H13        -3.8936  -12.1023   -1.5762 H         1 <0>         0.1308
     43 H14        -4.0521  -13.2128    0.6155 H         1 <0>         0.1331
     44 H15        -3.2718  -12.0542    2.6426 H         1 <0>         0.1359
     45 H16         8.3400   -4.9688   -0.0511 H         1 <0>         0.1757
     46 H17         8.7828   -2.4121   -0.0138 H         1 <0>         0.2052
@<TRIPOS>BOND
     1    1    2 1
     2    1   30 1
     3    1   31 1
     4    1   32 1
     5    2    6 1
     6    2    3 2
     7    3    4 1
     8    3   33 1
     9    4    5 2
    10    4   34 1
    11    5    6 1
    12    5    7 1
    13    7   12 ar
    14    7    8 ar
    15    8    9 ar
    16    9   10 ar
    17    9   25 1
    18   10   11 ar
    19   10   35 1
    20   11   12 ar
    21   11   13 1
    22   13   14 am
    23   13   36 1
    24   14   15 2
    25   14   16 1
    26   16   17 1
    27   16   37 1
    28   16   38 1
    29   17   18 1
    30   17   39 1
    31   17   40 1
    32   18   23 ar
    33   18   19 ar
    34   19   20 ar
    35   19   41 1
    36   20   21 ar
    37   20   42 1
    38   21   22 ar
    39   21   43 1
    40   22   23 ar
    41   22   44 1
    42   23   24 1
    43   25   29 1
    44   25   26 2
    45   26   27 1
    46   27   28 2
    47   27   45 1
    48   28   29 1
    49   28   46 1
