@<TRIPOS>MOLECULE
CHEMBL50051
   44    47     0     0     0
SMALL
USER_CHARGES

@<TRIPOS>ATOM
      1 C1         -0.0178    1.4608    0.0101 C.3       1 <0>         0.0786
      2 N1          0.0021   -0.0041    0.0020 N.pl3     1 <0>        -0.4616
      3 C2          0.0086   -0.8136   -1.1082 C.ar      1 <0>         0.3098
      4 C3          0.0290   -2.1375   -0.6291 C.ar      1 <0>        -0.0930
      5 C4          0.0392   -3.1867   -1.5690 C.ar      1 <0>         0.5188
      6 N2          0.0291   -2.8826   -2.8602 N.ar      1 <0>        -0.5704
      7 C5          0.0098   -1.6167   -3.2682 C.ar      1 <0>         0.4994
      8 N3         -0.0003   -0.5992   -2.4170 N.ar      1 <0>        -0.5345
      9 C6         -0.0003   -1.3429   -4.6738 C.1       1 <0>        -0.1021
     10 C7         -0.0087   -1.1184   -5.8261 C.1       1 <0>        -0.1088
     11 C8         -0.0191   -0.8370   -7.2709 C.3       1 <0>         0.2483
     12 C9          1.2355   -1.4302   -7.9151 C.3       1 <0>        -0.1395
     13 C10         2.4791   -0.8026   -7.2823 C.3       1 <0>        -0.1217
     14 C11         2.4572    0.7107   -7.5070 C.3       1 <0>        -0.1226
     15 C12         1.2026    1.3038   -6.8628 C.3       1 <0>        -0.1211
     16 C13        -0.0410    0.6762   -7.4956 C.3       1 <0>        -0.1025
     17 O1         -1.1807   -1.4232   -7.8620 O.3       1 <0>        -0.5444
     18 N4          0.0598   -4.5072   -1.1541 N.pl3     1 <0>        -0.8111
     19 N5          0.0340   -2.0813    0.7152 N.2       1 <0>        -0.4306
     20 C14         0.0237   -0.8258    1.1034 C.2       1 <0>         0.3489
     21 C15         0.0311   -0.3703    2.5011 C.2       1 <0>         0.0263
     22 C16        -0.2284   -1.1406    3.5957 C.2       1 <0>        -0.1255
     23 C17        -0.1111   -0.3012    4.7183 C.2       1 <0>        -0.2144
     24 C18         0.2106    0.9273    4.2628 C.2       1 <0>        -0.0098
     25 O2          0.3013    0.8806    2.9248 O.3       1 <0>        -0.1712
     26 H1          1.0048    1.8381    0.0023 H         1 <0>         0.0833
     27 H2         -0.5450    1.8219   -0.8730 H         1 <0>         0.0966
     28 H3         -0.5280    1.8123    0.9069 H         1 <0>         0.0947
     29 H4          1.2510   -2.5082   -7.7551 H         1 <0>         0.0716
     30 H5          1.2277   -1.2218   -8.9850 H         1 <0>         0.0851
     31 H6          2.4868   -1.0110   -6.2124 H         1 <0>         0.0676
     32 H7          3.3729   -1.2252   -7.7412 H         1 <0>         0.0698
     33 H8          3.3432    1.1578   -7.0561 H         1 <0>         0.0660
     34 H9          2.4494    0.9191   -8.5768 H         1 <0>         0.0666
     35 H10         1.2103    1.0954   -5.7929 H         1 <0>         0.0649
     36 H11         1.1870    2.3819   -7.0228 H         1 <0>         0.0730
     37 H12        -0.0488    0.8846   -8.5655 H         1 <0>         0.0842
     38 H13        -0.9348    1.0988   -7.0366 H         1 <0>         0.0760
     39 H14        -1.2331   -2.3831   -7.7579 H         1 <0>         0.3833
     40 H15         0.0673   -4.7180   -0.2073 H         1 <0>         0.4218
     41 H16         0.0666   -5.2217   -1.8101 H         1 <0>         0.4135
     42 H17        -0.4762   -2.1918    3.6000 H         1 <0>         0.1629
     43 H18        -0.2519   -0.5863    5.7504 H         1 <0>         0.1600
     44 H19         0.3729    1.8025    4.8743 H         1 <0>         0.2139
@<TRIPOS>BOND
     1    1    2 1
     2    1   26 1
     3    1   27 1
     4    1   28 1
     5    2   20 1
     6    2    3 1
     7    3    8 ar
     8    3    4 ar
     9    4    5 ar
    10    4   19 1
    11    5    6 ar
    12    5   18 1
    13    6    7 ar
    14    7    8 ar
    15    7    9 1
    16    9   10 3
    17   10   11 1
    18   11   16 1
    19   11   12 1
    20   11   17 1
    21   12   13 1
    22   12   29 1
    23   12   30 1
    24   13   14 1
    25   13   31 1
    26   13   32 1
    27   14   15 1
    28   14   33 1
    29   14   34 1
    30   15   16 1
    31   15   35 1
    32   15   36 1
    33   16   37 1
    34   16   38 1
    35   17   39 1
    36   18   40 1
    37   18   41 1
    38   19   20 2
    39   20   21 1
    40   21   25 1
    41   21   22 2
    42   22   23 1
    43   22   42 1
    44   23   24 2
    45   23   43 1
    46   24   25 1
    47   24   44 1
