@<TRIPOS>MOLECULE
CHEMBL360446
   36    39     0     0     0
SMALL
USER_CHARGES

@<TRIPOS>ATOM
      1 C1         -0.0166    1.3755    0.0096 C.ar      1 <0>        -0.1253
      2 C2          1.1704    2.0862    0.0021 C.ar      1 <0>        -0.0768
      3 C3          2.3822    1.4194   -0.0131 C.ar      1 <0>        -0.1025
      4 C4          2.4135    0.0396   -0.0213 C.ar      1 <0>        -0.0485
      5 C5          1.2207   -0.6820   -0.0138 C.ar      1 <0>        -0.0617
      6 C6          0.0021   -0.0041    0.0020 C.ar      1 <0>        -0.0799
      7 C7          1.2476   -2.1638   -0.0230 C.2       1 <0>         0.2542
      8 C8          0.0616   -2.8758   -0.0213 C.2       1 <0>        -0.2182
      9 C9          0.1240   -4.2809   -0.0307 C.2       1 <0>         0.3541
     10 N1         -0.7923   -5.2365   -0.0319 N.2       1 <0>        -0.5238
     11 C10        -0.1932   -6.4315   -0.0428 C.2       1 <0>         0.3541
     12 N2          1.1172   -6.2646   -0.0487 N.2       1 <0>        -0.3213
     13 N3          1.3558   -4.8843   -0.0411 N.pl3     1 <0>        -0.3621
     14 C11         2.4858   -4.1241   -0.0422 C.2       1 <0>         0.6549
     15 N4          2.4224   -2.8123   -0.0386 N.2       1 <0>        -0.5503
     16 N5          3.7150   -4.7410   -0.0528 N.pl3     1 <0>        -0.8070
     17 C12        -0.8885   -7.7358   -0.0471 C.2       1 <0>         0.0363
     18 C13        -2.2350   -7.9219   -0.0465 C.2       1 <0>        -0.1265
     19 C14        -2.4523   -9.3140   -0.0515 C.2       1 <0>        -0.2190
     20 C15        -1.2401   -9.9027   -0.0549 C.2       1 <0>        -0.0076
     21 O1         -0.2978   -8.9463   -0.0580 O.3       1 <0>        -0.1607
     22 C16         3.6706    2.2009   -0.0212 C.3       1 <0>         0.1166
     23 O2          4.0908    2.4407    1.3234 O.3       1 <0>        -0.5675
     24 H1         -0.9597    1.9016    0.0260 H         1 <0>         0.1335
     25 H2          1.1508    3.1661    0.0077 H         1 <0>         0.1279
     26 H3          3.3602   -0.4800   -0.0338 H         1 <0>         0.1373
     27 H4         -0.9251   -0.5578    0.0079 H         1 <0>         0.1346
     28 H5         -0.8898   -2.3648   -0.0125 H         1 <0>         0.1676
     29 H6          3.7717   -5.7093   -0.0593 H         1 <0>         0.4246
     30 H7          4.5253   -4.2078   -0.0537 H         1 <0>         0.4297
     31 H8         -2.9920   -7.1517   -0.0430 H         1 <0>         0.1632
     32 H9         -3.4093   -9.8146   -0.0522 H         1 <0>         0.1598
     33 H10        -1.0570  -10.9671   -0.0587 H         1 <0>         0.2135
     34 H11         4.4379    1.6312   -0.5455 H         1 <0>         0.0570
     35 H12         3.5148    3.1531   -0.5284 H         1 <0>         0.0573
     36 H13         4.9157    2.9403    1.3946 H         1 <0>         0.3826
@<TRIPOS>BOND
     1    1    6 ar
     2    1    2 ar
     3    1   24 1
     4    2    3 ar
     5    2   25 1
     6    3    4 ar
     7    3   22 1
     8    4    5 ar
     9    4   26 1
    10    5    6 ar
    11    5    7 1
    12    6   27 1
    13    7   15 1
    14    7    8 2
    15    8    9 1
    16    8   28 1
    17    9   13 1
    18    9   10 2
    19   10   11 1
    20   11   12 2
    21   11   17 1
    22   12   13 1
    23   13   14 1
    24   14   15 2
    25   14   16 1
    26   16   29 1
    27   16   30 1
    28   17   21 1
    29   17   18 2
    30   18   19 1
    31   18   31 1
    32   19   20 2
    33   19   32 1
    34   20   21 1
    35   20   33 1
    36   22   23 1
    37   22   34 1
    38   22   35 1
    39   23   36 1
