@<TRIPOS>MOLECULE
CHEMBL1086956
   32    34     0     0     0
SMALL
USER_CHARGES

@<TRIPOS>ATOM
      1 C1         -0.0184    1.5028    0.0103 C.3       1 <0>        -0.1140
      2 C2          0.0021   -0.0041    0.0020 C.2       1 <0>         0.4106
      3 N1          0.0053   -0.6393   -1.1394 N.2       1 <0>        -0.4897
      4 C3          0.0228   -1.9686   -1.1817 C.2       1 <0>         0.1063
      5 C4          0.0387   -2.7503   -0.0158 C.2       1 <0>        -0.2492
      6 C5          0.0562   -4.1987   -0.2162 C.2       1 <0>        -0.0497
      7 C6          0.0559   -4.6402   -1.4917 C.2       1 <0>        -0.1703
      8 S1          0.0327   -3.1727   -2.4856 S.3       1 <0>         0.1461
      9 C7          0.0718   -6.0635   -1.9594 C.3       1 <0>        -0.0368
     10 C8          0.4620   -6.9586   -0.7745 C.3       1 <0>        -0.1150
     11 C9         -0.3749   -6.5550    0.4429 C.3       1 <0>        -0.1230
     12 C10         0.0737   -5.1836    0.9496 C.3       1 <0>        -0.0591
     13 C11         0.0351   -2.0226    1.2192 C.2       1 <0>         0.5549
     14 O1          0.0489   -2.6122    2.2860 O.2       1 <0>        -0.5154
     15 N2          0.0224   -0.6771    1.1811 N.am      1 <0>        -0.5267
     16 C12         0.0242    0.0764    2.4375 C.3       1 <0>         0.2032
     17 C13        -1.3628    0.3100    2.8715 C.1       1 <0>        -0.2284
     18 C14        -2.4690    0.4963    3.2177 C.1       1 <0>        -0.1455
     19 H1          1.0042    1.8801    0.0026 H         1 <0>         0.1072
     20 H2         -0.5455    1.8639   -0.8728 H         1 <0>         0.1096
     21 H3         -0.5286    1.8543    0.9071 H         1 <0>         0.0933
     22 H4         -0.9183   -6.3425   -2.3198 H         1 <0>         0.0860
     23 H5          0.8008   -6.1781   -2.7617 H         1 <0>         0.0846
     24 H6          0.2655   -8.0013   -1.0238 H         1 <0>         0.0763
     25 H7          1.5206   -6.8273   -0.5502 H         1 <0>         0.0694
     26 H8         -1.4269   -6.5110    0.1607 H         1 <0>         0.0658
     27 H9         -0.2439   -7.2938    1.2335 H         1 <0>         0.0718
     28 H10         1.0839   -5.2547    1.3526 H         1 <0>         0.0789
     29 H11        -0.6088   -4.8411    1.7274 H         1 <0>         0.0850
     30 H12         0.5531   -0.4930    3.2018 H         1 <0>         0.1260
     31 H13         0.5238    1.0333    2.2865 H         1 <0>         0.1234
     32 H14        -3.4584    0.6630    3.5273 H         1 <0>         0.2244
@<TRIPOS>BOND
     1    1    2 1
     2    1   19 1
     3    1   20 1
     4    1   21 1
     5    2   15 1
     6    2    3 2
     7    3    4 1
     8    4    8 1
     9    4    5 2
    10    5    6 1
    11    5   13 1
    12    6   12 1
    13    6    7 2
    14    7    8 1
    15    7    9 1
    16    9   10 1
    17    9   22 1
    18    9   23 1
    19   10   11 1
    20   10   24 1
    21   10   25 1
    22   11   12 1
    23   11   26 1
    24   11   27 1
    25   12   28 1
    26   12   29 1
    27   13   14 2
    28   13   15 am
    29   15   16 1
    30   16   17 1
    31   16   30 1
    32   16   31 1
    33   17   18 3
    34   18   32 1
