@<TRIPOS>MOLECULE
CHEMBL1093480
   39    43     0     0     0
SMALL
USER_CHARGES

@<TRIPOS>ATOM
      1 C1         -0.0167    1.3781    0.0096 C.ar      1 <0>        -0.1173
      2 C2          1.1709    2.0855    0.0021 C.ar      1 <0>        -0.1176
      3 C3          2.3773    1.4107   -0.0130 C.ar      1 <0>        -0.1077
      4 C4          2.3960    0.0285   -0.0201 C.ar      1 <0>        -0.0869
      5 C5          1.2084   -0.6789   -0.0117 C.ar      1 <0>        -0.1112
      6 C6          0.0021   -0.0041    0.0020 C.ar      1 <0>        -0.1195
      7 C7          3.7112   -0.7071   -0.0376 C.3       1 <0>        -0.0889
      8 C8          4.1714   -0.9633    1.3989 C.3       1 <0>         0.0881
      9 N1          5.4498   -1.6784    1.3820 N.pl3     1 <0>        -0.4489
     10 C9          5.4588   -3.0554    1.3698 C.2       1 <0>         0.3442
     11 C10         6.7145   -3.6582    1.3540 C.2       1 <0>        -0.2152
     12 C11         6.8584   -5.0464    1.3407 C.2       1 <0>         0.3721
     13 N2          7.8872   -5.8799    1.3252 N.2       1 <0>        -0.5044
     14 C12         7.4469   -7.1409    1.3182 C.2       1 <0>         0.3605
     15 N3          6.1253   -7.1432    1.3290 N.2       1 <0>        -0.2791
     16 N4          5.7127   -5.8069    1.3437 N.pl3     1 <0>        -0.3359
     17 C13         4.5093   -5.1843    1.3594 C.2       1 <0>         0.4290
     18 N5          4.3892   -3.8914    1.3711 N.2       1 <0>        -0.4800
     19 C14         8.3036   -8.3452    1.3010 C.2       1 <0>         0.0321
     20 C15         7.8690   -9.6332    1.2882 C.2       1 <0>        -0.1280
     21 C16         9.0177  -10.4490    1.2742 C.2       1 <0>        -0.2203
     22 C17        10.0856   -9.6271    1.2790 C.2       1 <0>         0.0022
     23 O1          9.6505   -8.3570    1.2894 O.3       1 <0>        -0.1522
     24 S1          7.8302   -2.2788    1.3568 S.3       1 <0>         0.2075
     25 C18         6.6036   -0.9802    1.3728 C.2       1 <0>         0.2477
     26 S2          6.8338    0.7163    1.3777 S.2       1 <0>        -0.3626
     27 H1         -0.9591    1.9053    0.0259 H         1 <0>         0.1227
     28 H2          1.1563    3.1654    0.0076 H         1 <0>         0.1244
     29 H3          3.3051    1.9634   -0.0196 H         1 <0>         0.1271
     30 H4          1.2231   -1.7588   -0.0176 H         1 <0>         0.1227
     31 H5         -0.9258   -0.5567    0.0082 H         1 <0>         0.1232
     32 H6          3.5884   -1.6586   -0.5549 H         1 <0>         0.0791
     33 H7          4.4573   -0.1052   -0.5563 H         1 <0>         0.0860
     34 H8          4.2941   -0.0118    1.9163 H         1 <0>         0.1199
     35 H9          3.4252   -1.5652    1.9176 H         1 <0>         0.1112
     36 H10         3.6137   -5.7879    1.3613 H         1 <0>         0.2361
     37 H11         6.8418   -9.9667    1.2890 H         1 <0>         0.1626
     38 H12         9.0384  -11.5287    1.2622 H         1 <0>         0.1616
     39 H13        11.1197   -9.9384    1.2712 H         1 <0>         0.2160
@<TRIPOS>BOND
     1    1    6 ar
     2    1    2 ar
     3    1   27 1
     4    2    3 ar
     5    2   28 1
     6    3    4 ar
     7    3   29 1
     8    4    5 ar
     9    4    7 1
    10    5    6 ar
    11    5   30 1
    12    6   31 1
    13    7    8 1
    14    7   32 1
    15    7   33 1
    16    8    9 1
    17    8   34 1
    18    8   35 1
    19    9   25 1
    20    9   10 1
    21   10   18 1
    22   10   11 2
    23   11   12 1
    24   11   24 1
    25   12   16 1
    26   12   13 2
    27   13   14 1
    28   14   15 2
    29   14   19 1
    30   15   16 1
    31   16   17 1
    32   17   18 2
    33   17   36 1
    34   19   23 1
    35   19   20 2
    36   20   21 1
    37   20   37 1
    38   21   22 2
    39   21   38 1
    40   22   23 1
    41   22   39 1
    42   24   25 1
    43   25   26 2
