@<TRIPOS>MOLECULE
CHEMBL406298
   22    24     0     0     0
SMALL
USER_CHARGES

@<TRIPOS>ATOM
      1 C1         -0.0162    1.3446    0.0094 C.2       1 <0>        -0.2200
      2 C2          1.3233    1.7757   -0.0010 C.2       1 <0>        -0.1299
      3 C3          2.0959    0.6545   -0.0144 C.2       1 <0>        -0.0054
      4 O1          1.2787   -0.4171   -0.0124 O.3       1 <0>        -0.1599
      5 C4          0.0021   -0.0041    0.0020 C.2       1 <0>        -0.0079
      6 C5          3.5696    0.6189   -0.0287 C.ar      1 <0>         0.3583
      7 C6          4.2642   -0.3813    0.6382 C.ar      1 <0>        -0.2852
      8 C7          5.6758   -0.4226    0.6290 C.ar      1 <0>         0.2215
      9 C8          6.2511   -1.4882    1.3438 C.2       1 <0>        -0.1661
     10 C9          5.4662   -2.3813    1.9762 C.2       1 <0>        -0.1001
     11 S1          3.8202   -1.7915    1.6163 S.3       1 <0>         0.1008
     12 N1          6.2878    0.5681   -0.0657 N.ar      1 <0>        -0.5529
     13 C10         5.5971    1.4999   -0.6853 C.ar      1 <0>         0.5796
     14 N2          4.2719    1.5465   -0.6893 N.ar      1 <0>        -0.5332
     15 N3          6.2909    2.4817   -1.3760 N.pl3     1 <0>        -0.8196
     16 H1         -0.8933    1.9746    0.0252 H         1 <0>         0.1581
     17 H2          1.6713    2.7982    0.0008 H         1 <0>         0.1580
     18 H3         -0.8669   -0.6454    0.0072 H         1 <0>         0.2132
     19 H4          7.3254   -1.5908    1.3856 H         1 <0>         0.1522
     20 H5          5.7602   -3.2427    2.5575 H         1 <0>         0.2046
     21 H6          7.2607    2.4692   -1.3933 H         1 <0>         0.4171
     22 H7          5.8065    3.1811   -1.8420 H         1 <0>         0.4167
@<TRIPOS>BOND
     1    1    5 2
     2    1    2 1
     3    1   16 1
     4    2    3 2
     5    2   17 1
     6    3    4 1
     7    3    6 1
     8    4    5 1
     9    5   18 1
    10    6   14 ar
    11    6    7 ar
    12    7   11 1
    13    7    8 ar
    14    8    9 1
    15    8   12 ar
    16    9   10 2
    17    9   19 1
    18   10   11 1
    19   10   20 1
    20   12   13 ar
    21   13   14 ar
    22   13   15 1
    23   15   21 1
    24   15   22 1
