@<TRIPOS>MOLECULE
CHEMBL82901
   37    41     0     0     0
SMALL
USER_CHARGES

@<TRIPOS>ATOM
      1 C1         -0.0167    1.3781    0.0096 C.ar      1 <0>        -0.1038
      2 C2          1.1709    2.0855    0.0021 C.ar      1 <0>        -0.1250
      3 C3          2.3773    1.4107   -0.0130 C.ar      1 <0>        -0.0911
      4 C4          2.3960    0.0285   -0.0201 C.ar      1 <0>        -0.1283
      5 C5          1.2084   -0.6789   -0.0117 C.ar      1 <0>        -0.0882
      6 C6          0.0021   -0.0041    0.0020 C.ar      1 <0>        -0.1231
      7 C7          3.7112   -0.7071   -0.0376 C.3       1 <0>         0.1726
      8 N1          4.1518   -0.9524    1.3379 N.pl3     1 <0>        -0.3529
      9 C8          4.9277   -0.1303    2.1054 C.2       1 <0>         0.3423
     10 C9          5.0819   -0.7822    3.3353 C.2       1 <0>        -0.0796
     11 C10         5.8823   -0.1145    4.3640 C.2       1 <0>         0.4105
     12 N2          6.2318   -0.4165    5.5975 N.2       1 <0>        -0.4901
     13 C11         6.9875    0.5660    6.1037 C.2       1 <0>         0.3515
     14 N3          7.1327    1.5143    5.1972 N.2       1 <0>        -0.2863
     15 N4          6.4286    1.1042    4.0577 N.pl3     1 <0>        -0.3712
     16 C12         6.2193    1.6567    2.8279 C.2       1 <0>         0.6972
     17 N5          5.5037    1.0615    1.9049 N.2       1 <0>        -0.5532
     18 N6          6.7787    2.8814    2.5467 N.pl3     1 <0>        -0.7951
     19 C13         7.5675    0.5855    7.4630 C.2       1 <0>         0.0386
     20 C14         8.3314    1.5788    7.9901 C.2       1 <0>        -0.1331
     21 C15         8.6633    1.1832    9.3011 C.2       1 <0>        -0.2207
     22 C16         8.0915   -0.0195    9.5072 C.2       1 <0>        -0.0001
     23 O1          7.4263   -0.3752    8.3965 O.3       1 <0>        -0.1508
     24 N7          4.4156   -1.9432    3.2772 N.2       1 <0>        -0.1611
     25 N8          3.8543   -2.0743    2.1259 N.2       1 <0>        -0.0243
     26 H1         -0.9591    1.9053    0.0259 H         1 <0>         0.1253
     27 H2          1.1563    3.1654    0.0076 H         1 <0>         0.1254
     28 H3          3.3051    1.9634   -0.0196 H         1 <0>         0.1276
     29 H4          1.2231   -1.7588   -0.0176 H         1 <0>         0.1288
     30 H5         -0.9258   -0.5567    0.0082 H         1 <0>         0.1273
     31 H6          3.5884   -1.6586   -0.5549 H         1 <0>         0.1185
     32 H7          4.4573   -0.1052   -0.5563 H         1 <0>         0.1146
     33 H8          7.3113    3.3368    3.2175 H         1 <0>         0.4287
     34 H9          6.6407    3.2897    1.6777 H         1 <0>         0.4325
     35 H10         8.6267    2.4942    7.4990 H         1 <0>         0.1610
     36 H11         9.2630    1.7386   10.0070 H         1 <0>         0.1604
     37 H12         8.1546   -0.5992   10.4163 H         1 <0>         0.2151
@<TRIPOS>BOND
     1    1    6 ar
     2    1    2 ar
     3    1   26 1
     4    2    3 ar
     5    2   27 1
     6    3    4 ar
     7    3   28 1
     8    4    5 ar
     9    4    7 1
    10    5    6 ar
    11    5   29 1
    12    6   30 1
    13    7    8 1
    14    7   31 1
    15    7   32 1
    16    8   25 1
    17    8    9 1
    18    9   17 1
    19    9   10 2
    20   10   11 1
    21   10   24 1
    22   11   15 1
    23   11   12 2
    24   12   13 1
    25   13   14 2
    26   13   19 1
    27   14   15 1
    28   15   16 1
    29   16   17 2
    30   16   18 1
    31   18   33 1
    32   18   34 1
    33   19   23 1
    34   19   20 2
    35   20   21 1
    36   20   35 1
    37   21   22 2
    38   21   36 1
    39   22   23 1
    40   22   37 1
    41   24   25 2
