@<TRIPOS>MOLECULE
CHEMBL360707
   61    66     0     0     0
SMALL
USER_CHARGES

@<TRIPOS>ATOM
      1 C1         -0.0167    1.3777   -0.0070 C.ar      1 <0>        -0.0726
      2 C2          1.1668    2.0885    0.0019 C.ar      1 <0>        -0.1330
      3 C3          2.3866    1.4125    0.0034 C.ar      1 <0>        -0.0034
      4 C4          2.4064    0.0192   -0.0042 C.ar      1 <0>        -0.1454
      5 C5          1.2130   -0.6867   -0.0131 C.ar      1 <0>         0.1977
      6 C6          0.0020   -0.0040   -0.0146 C.ar      1 <0>        -0.1739
      7 N1          1.2276   -2.0836   -0.0212 N.pl3     1 <0>        -0.6364
      8 C7         -0.0234   -2.8459    0.0908 C.3       1 <0>         0.1268
      9 C8         -0.1064   -3.8318   -1.0788 C.3       1 <0>        -0.1595
     10 C9          1.1563   -4.6961   -1.1027 C.3       1 <0>         0.0278
     11 C10         2.3830   -3.8045   -1.3087 C.3       1 <0>        -0.1588
     12 C11         2.4936   -2.8183   -0.1478 C.3       1 <0>         0.1259
     13 N2          1.0653   -5.6651   -2.2031 N.4       1 <0>        -0.3839
     14 C12        -0.1108   -6.5232   -2.0043 C.3       1 <0>        -0.0476
     15 C13        -0.2035   -7.5317   -3.1521 C.3       1 <0>         0.0367
     16 O1          1.0030   -8.2981   -3.2050 O.3       1 <0>        -0.3561
     17 C14         2.1804   -7.5038   -3.3738 C.3       1 <0>         0.0368
     18 C15         2.2776   -6.4952   -2.2264 C.3       1 <0>        -0.0477
     19 C16         3.6582    2.1738    0.0125 C.2       1 <0>         0.2398
     20 C17         3.6347    3.5568    0.0253 C.2       1 <0>        -0.2060
     21 C18         4.8600    4.2475    0.0341 C.2       1 <0>         0.3504
     22 N3          5.1859    5.5305    0.0467 N.2       1 <0>        -0.5186
     23 C19         6.5169    5.6546    0.0504 C.2       1 <0>         0.3597
     24 N4          7.0688    4.4545    0.0404 N.2       1 <0>        -0.3184
     25 N5          6.0239    3.5216    0.0297 N.pl3     1 <0>        -0.3617
     26 C20         5.9768    2.1606    0.0166 C.2       1 <0>         0.6552
     27 N6          4.8302    1.5201    0.0139 N.2       1 <0>        -0.5548
     28 N7          7.1508    1.4440    0.0118 N.pl3     1 <0>        -0.8076
     29 C21         7.2556    6.9347    0.0630 C.2       1 <0>         0.0287
     30 C22         6.7010    8.1757    0.0786 C.2       1 <0>        -0.1219
     31 C23         7.7672    9.0967    0.0862 C.2       1 <0>        -0.2191
     32 C24         8.9082    8.3798    0.0751 C.2       1 <0>        -0.0029
     33 O2          8.5954    7.0742    0.0669 O.3       1 <0>        -0.1608
     34 H1         -0.9602    1.9032   -0.0036 H         1 <0>         0.1336
     35 H2          1.1481    3.1683    0.0074 H         1 <0>         0.1340
     36 H3          3.3484   -0.5091   -0.0034 H         1 <0>         0.1370
     37 H4         -0.9268   -0.5550   -0.0212 H         1 <0>         0.1256
     38 H5         -0.0340   -3.3945    1.0326 H         1 <0>         0.0748
     39 H6         -0.8721   -2.1629    0.0538 H         1 <0>         0.1050
     40 H7         -0.9816   -4.4697   -0.9555 H         1 <0>         0.0983
     41 H8         -0.1871   -3.2796   -2.0151 H         1 <0>         0.0925
     42 H9          1.2496   -5.2291   -0.1565 H         1 <0>         0.1388
     43 H10         3.2797   -4.4230   -1.3490 H         1 <0>         0.0984
     44 H11         2.2789   -3.2526   -2.2428 H         1 <0>         0.0921
     45 H12         3.3052   -2.1171   -0.3422 H         1 <0>         0.1059
     46 H13         2.6929   -3.3646    0.7741 H         1 <0>         0.0738
     47 H14        -0.0162   -7.0565   -1.0584 H         1 <0>         0.1393
     48 H15        -1.0107   -5.9084   -1.9869 H         1 <0>         0.1435
     49 H16        -1.0504   -8.1971   -2.9844 H         1 <0>         0.1424
     50 H17        -0.3385   -6.9999   -4.0939 H         1 <0>         0.0808
     51 H18         3.0589   -8.1491   -3.3666 H         1 <0>         0.1422
     52 H19         2.1270   -6.9710   -4.3232 H         1 <0>         0.0808
     53 H20         3.1507   -5.8597   -2.3739 H         1 <0>         0.1433
     54 H21         2.3713   -7.0286   -1.2804 H         1 <0>         0.1393
     55 H22         2.6976    4.0936    0.0281 H         1 <0>         0.1689
     56 H23         8.0025    1.9084    0.0177 H         1 <0>         0.4262
     57 H24         7.1272    0.4744    0.0025 H         1 <0>         0.4274
     58 H25         5.6468    8.4103    0.0837 H         1 <0>         0.1636
     59 H26         7.6855   10.1736    0.0986 H         1 <0>         0.1613
     60 H27         9.9082    8.7877    0.0767 H         1 <0>         0.2151
     61 H28         0.9782   -5.1722   -3.0791 H         1 <0>         0.4208
@<TRIPOS>BOND
     1    1    6 ar
     2    1    2 ar
     3    1   34 1
     4    2    3 ar
     5    2   35 1
     6    3    4 ar
     7    3   19 1
     8    4    5 ar
     9    4   36 1
    10    5    6 ar
    11    5    7 1
    12    6   37 1
    13    7   12 1
    14    7    8 1
    15    8    9 1
    16    8   38 1
    17    8   39 1
    18    9   10 1
    19    9   40 1
    20    9   41 1
    21   10   11 1
    22   10   13 1
    23   10   42 1
    24   11   12 1
    25   11   43 1
    26   11   44 1
    27   12   45 1
    28   12   46 1
    29   13   18 1
    30   13   14 1
    31   13   61 1
    32   14   15 1
    33   14   47 1
    34   14   48 1
    35   15   16 1
    36   15   49 1
    37   15   50 1
    38   16   17 1
    39   17   18 1
    40   17   51 1
    41   17   52 1
    42   18   53 1
    43   18   54 1
    44   19   27 1
    45   19   20 2
    46   20   21 1
    47   20   55 1
    48   21   25 1
    49   21   22 2
    50   22   23 1
    51   23   24 2
    52   23   29 1
    53   24   25 1
    54   25   26 1
    55   26   27 2
    56   26   28 1
    57   28   56 1
    58   28   57 1
    59   29   33 1
    60   29   30 2
    61   30   31 1
    62   30   58 1
    63   31   32 2
    64   31   59 1
    65   32   33 1
    66   32   60 1
