@<TRIPOS>MOLECULE
CHEMBL17302
   38    42     0     0     0
SMALL
USER_CHARGES

@<TRIPOS>ATOM
      1 C1         -0.0162    1.3433    0.0094 C.2       1 <0>        -0.2201
      2 C2          1.3252    1.7744   -0.0011 C.2       1 <0>        -0.1369
      3 C3          2.0962    0.6548   -0.0144 C.2       1 <0>         0.0419
      4 O1          1.2797   -0.4166   -0.0124 O.3       1 <0>        -0.1521
      5 C4          0.0021   -0.0041    0.0020 C.2       1 <0>        -0.0038
      6 C5          3.5736    0.6193   -0.0287 C.2       1 <0>         0.3511
      7 N1          4.3223   -0.4908   -0.0472 N.2       1 <0>        -0.5161
      8 C6          5.5979   -0.1638   -0.0558 C.2       1 <0>         0.4065
      9 C7          6.8494   -0.9218   -0.0750 C.2       1 <0>        -0.2666
     10 C8          7.1770   -2.2895   -0.0925 C.2       1 <0>         0.1317
     11 N2          8.4769   -2.4024   -0.1057 N.2       1 <0>        -0.2616
     12 N3          9.0564   -1.1275   -0.0976 N.pl3     1 <0>        -0.3524
     13 C9          8.0548   -0.2036   -0.0786 C.2       1 <0>         0.3726
     14 N4          8.0263    1.1363   -0.0638 N.2       1 <0>        -0.5621
     15 C10         6.9037    1.8122   -0.0459 C.2       1 <0>         0.6925
     16 N5          5.6820    1.2042   -0.0426 N.pl3     1 <0>        -0.3763
     17 N6          4.3634    1.6766   -0.0311 N.2       1 <0>        -0.2998
     18 N7          6.9590    3.1863   -0.0316 N.pl3     1 <0>        -0.8022
     19 C11        10.4923   -0.8370   -0.1068 C.3       1 <0>         0.1816
     20 C12        10.9724   -0.7222   -1.5307 C.ar      1 <0>        -0.1349
     21 C13        11.4245   -1.8444   -2.1996 C.ar      1 <0>        -0.0585
     22 C14        11.8646   -1.7405   -3.5055 C.ar      1 <0>        -0.1580
     23 C15        11.8527   -0.5119   -4.1439 C.ar      1 <0>         0.1122
     24 C16        11.3997    0.6113   -3.4728 C.ar      1 <0>        -0.1592
     25 C17        10.9551    0.5040   -2.1687 C.ar      1 <0>        -0.0627
     26 F1         12.2831   -0.4090   -5.4203 F         1 <0>        -0.1364
     27 H1         -0.8931    1.9736    0.0252 H         1 <0>         0.1595
     28 H2          1.6736    2.7966    0.0006 H         1 <0>         0.1599
     29 H3         -0.8667   -0.6456    0.0076 H         1 <0>         0.2143
     30 H4          6.4721   -3.1077   -0.0946 H         1 <0>         0.2022
     31 H5          7.8178    3.6373   -0.0348 H         1 <0>         0.4302
     32 H6          6.1392    3.7046   -0.0183 H         1 <0>         0.4265
     33 H7         10.6764    0.1019    0.4155 H         1 <0>         0.1106
     34 H8         11.0292   -1.6426    0.3939 H         1 <0>         0.1130
     35 H9         11.4340   -2.8026   -1.7014 H         1 <0>         0.1385
     36 H10        12.2181   -2.6172   -4.0278 H         1 <0>         0.1395
     37 H11        11.3902    1.5702   -3.9696 H         1 <0>         0.1380
     38 H12        10.5975    1.3792   -1.6466 H         1 <0>         0.1376
@<TRIPOS>BOND
     1    1    5 2
     2    1    2 1
     3    1   27 1
     4    2    3 2
     5    2   28 1
     6    3    4 1
     7    3    6 1
     8    4    5 1
     9    5   29 1
    10    6   17 2
    11    6    7 1
    12    7    8 2
    13    8   16 1
    14    8    9 1
    15    9   13 2
    16    9   10 1
    17   10   11 2
    18   10   30 1
    19   11   12 1
    20   12   13 1
    21   12   19 1
    22   13   14 1
    23   14   15 2
    24   15   16 1
    25   15   18 1
    26   16   17 1
    27   18   31 1
    28   18   32 1
    29   19   20 1
    30   19   33 1
    31   19   34 1
    32   20   25 ar
    33   20   21 ar
    34   21   22 ar
    35   21   35 1
    36   22   23 ar
    37   22   36 1
    38   23   24 ar
    39   23   26 1
    40   24   25 ar
    41   24   37 1
    42   25   38 1
