@<TRIPOS>MOLECULE
CHEMBL246675
   69    74     0     0     0
SMALL
USER_CHARGES

@<TRIPOS>ATOM
      1 C1         -2.2234    1.2651    1.5143 C.3       1 <0>         0.0296
      2 O1         -1.8296   -0.0694    1.8399 O.3       1 <0>        -0.3865
      3 C2         -0.4155   -0.2510    1.9362 C.3       1 <0>         0.0598
      4 C3         -0.1112   -1.7088    2.2871 C.3       1 <0>         0.0620
      5 O2         -0.5287   -2.5543    1.2134 O.3       1 <0>        -0.3052
      6 C4         -0.3284   -3.8908    1.3662 C.ar      1 <0>         0.1027
      7 C5          0.2527   -4.3761    2.5283 C.ar      1 <0>        -0.1643
      8 C6          0.4566   -5.7332    2.6843 C.ar      1 <0>        -0.1416
      9 C7          0.0796   -6.6118    1.6772 C.ar      1 <0>         0.1561
     10 C8         -0.5021   -6.1250    0.5141 C.ar      1 <0>        -0.1421
     11 C9         -0.7104   -4.7682    0.3621 C.ar      1 <0>        -0.1044
     12 N1          0.2862   -7.9869    1.8342 N.pl3     1 <0>        -0.6452
     13 C10        -0.2105   -8.9454    0.8349 C.3       1 <0>         0.1021
     14 C11         0.9396   -9.8792    0.4439 C.3       1 <0>        -0.0215
     15 N2          1.4983  -10.4986    1.6524 N.4       1 <0>        -0.3772
     16 C12         2.0994   -9.4691    2.5097 C.3       1 <0>        -0.0294
     17 C13         1.0116   -8.5145    3.0002 C.3       1 <0>         0.1032
     18 C14         2.5263  -11.4755    1.2692 C.3       1 <0>        -0.0302
     19 C15         3.0212  -12.2108    2.5164 C.3       1 <0>         0.0941
     20 N3          4.0464  -13.1851    2.1343 N.pl3     1 <0>        -0.4624
     21 C16         3.8439  -14.5066    1.8692 C.2       1 <0>         0.2246
     22 N4          4.9761  -15.0727    1.5619 N.2       1 <0>        -0.4138
     23 C17         5.9657  -14.1534    1.6114 C.2       1 <0>        -0.0138
     24 C18         5.3855  -12.9331    1.9719 C.2       1 <0>         0.2860
     25 N5          6.1500  -11.8410    2.0887 N.2       1 <0>        -0.5644
     26 C19         7.4427  -11.8659    1.8728 C.2       1 <0>         0.6849
     27 N6          8.1000  -13.0061    1.5139 N.pl3     1 <0>        -0.3678
     28 C20         7.4072  -14.1818    1.3763 C.2       1 <0>         0.3841
     29 N7          8.2677  -15.1182    1.0290 N.2       1 <0>        -0.4694
     30 C21         9.4950  -14.5941    0.9523 C.2       1 <0>         0.3291
     31 N8          9.4381  -13.3067    1.2297 N.2       1 <0>        -0.2955
     32 C22        10.7256  -15.3402    0.5896 C.ar      1 <0>         0.1806
     33 C23        11.9496  -14.6763    0.5508 C.ar      1 <0>        -0.1258
     34 C24        13.0889  -15.3855    0.2113 C.ar      1 <0>        -0.0759
     35 C25        12.9659  -16.7370   -0.0786 C.ar      1 <0>        -0.1464
     36 C26        11.7192  -17.3321   -0.0205 C.ar      1 <0>         0.1059
     37 N9         10.6516  -16.6347    0.3104 N.ar      1 <0>        -0.4404
     38 N10         8.1620  -10.7005    2.0126 N.pl3     1 <0>        -0.8011
     39 H1         -3.3107    1.3201    1.4600 H         1 <0>         0.0902
     40 H2         -1.8631    1.9482    2.2834 H         1 <0>         0.0440
     41 H3         -1.7969    1.5450    0.5510 H         1 <0>         0.0446
     42 H4          0.0485   -0.0026    0.9817 H         1 <0>         0.0629
     43 H5         -0.0176    0.4006    2.7141 H         1 <0>         0.0745
     44 H6          0.9603   -1.8278    2.4477 H         1 <0>         0.0781
     45 H7         -0.6475   -1.9834    3.1954 H         1 <0>         0.0726
     46 H8          0.5462   -3.6926    3.3113 H         1 <0>         0.1329
     47 H9          0.9094   -6.1109    3.5891 H         1 <0>         0.1256
     48 H10        -0.7956   -6.8076   -0.2697 H         1 <0>         0.1297
     49 H11        -1.1671   -4.3898   -0.5404 H         1 <0>         0.1373
     50 H12        -1.0271   -9.5284    1.2608 H         1 <0>         0.0888
     51 H13        -0.5611   -8.4075   -0.0459 H         1 <0>         0.1277
     52 H14         0.5662  -10.6561   -0.2232 H         1 <0>         0.1427
     53 H15         1.7162   -9.3068   -0.0633 H         1 <0>         0.1338
     54 H16         2.5806   -9.9438    3.3649 H         1 <0>         0.1406
     55 H17         2.8409   -8.9091    1.9400 H         1 <0>         0.1360
     56 H18         1.4686   -7.6919    3.5503 H         1 <0>         0.1261
     57 H19         0.3205   -9.0533    3.6485 H         1 <0>         0.0875
     58 H20         2.1014  -12.1942    0.5685 H         1 <0>         0.1425
     59 H21         3.3614  -10.9580    0.7972 H         1 <0>         0.1381
     60 H22         3.4462  -11.4921    3.2172 H         1 <0>         0.1162
     61 H23         2.1861  -12.7283    2.9884 H         1 <0>         0.1243
     62 H24         2.8886  -15.0088    1.9081 H         1 <0>         0.2326
     63 H25        12.0088  -13.6230    0.7820 H         1 <0>         0.1449
     64 H26        14.0517  -14.8978    0.1725 H         1 <0>         0.1469
     65 H27        13.8356  -17.3183   -0.3472 H         1 <0>         0.1465
     66 H28        11.6199  -18.3837   -0.2455 H         1 <0>         0.1690
     67 H29         7.7115   -9.8800    2.2668 H         1 <0>         0.4286
     68 H30         9.1195  -10.6999    1.8569 H         1 <0>         0.4297
     69 H31         0.7630  -10.9688    2.1586 H         1 <0>         0.4245
@<TRIPOS>BOND
     1    1    2 1
     2    1   39 1
     3    1   40 1
     4    1   41 1
     5    2    3 1
     6    3    4 1
     7    3   42 1
     8    3   43 1
     9    4    5 1
    10    4   44 1
    11    4   45 1
    12    5    6 1
    13    6   11 ar
    14    6    7 ar
    15    7    8 ar
    16    7   46 1
    17    8    9 ar
    18    8   47 1
    19    9   10 ar
    20    9   12 1
    21   10   11 ar
    22   10   48 1
    23   11   49 1
    24   12   17 1
    25   12   13 1
    26   13   14 1
    27   13   50 1
    28   13   51 1
    29   14   15 1
    30   14   52 1
    31   14   53 1
    32   15   16 1
    33   15   18 1
    34   15   69 1
    35   16   17 1
    36   16   54 1
    37   16   55 1
    38   17   56 1
    39   17   57 1
    40   18   19 1
    41   18   58 1
    42   18   59 1
    43   19   20 1
    44   19   60 1
    45   19   61 1
    46   20   24 1
    47   20   21 1
    48   21   22 2
    49   21   62 1
    50   22   23 1
    51   23   28 1
    52   23   24 2
    53   24   25 1
    54   25   26 2
    55   26   27 1
    56   26   38 1
    57   27   31 1
    58   27   28 1
    59   28   29 2
    60   29   30 1
    61   30   31 2
    62   30   32 1
    63   32   37 ar
    64   32   33 ar
    65   33   34 ar
    66   33   63 1
    67   34   35 ar
    68   34   64 1
    69   35   36 ar
    70   35   65 1
    71   36   37 ar
    72   36   66 1
    73   38   67 1
    74   38   68 1
