@<TRIPOS>MOLECULE
CHEMBL372475
   38    41     0     0     0
SMALL
USER_CHARGES

@<TRIPOS>ATOM
      1 C1         -0.0162    1.3448    0.0094 C.2       1 <0>        -0.2232
      2 C2          1.3230    1.7760   -0.0010 C.2       1 <0>        -0.1378
      3 C3          2.0960    0.6543   -0.0144 C.2       1 <0>         0.0080
      4 O1          1.2786   -0.4173   -0.0124 O.3       1 <0>        -0.1484
      5 C4          0.0021   -0.0041    0.0020 C.2       1 <0>        -0.0097
      6 C5          3.5685    0.6188   -0.0294 C.ar      1 <0>         0.3653
      7 C6          4.2724   -0.3973    0.6484 C.ar      1 <0>        -0.0876
      8 C7          5.6778   -0.3798    0.5989 C.ar      1 <0>         0.3317
      9 N1          6.2899    0.5846   -0.0786 N.ar      1 <0>        -0.5732
     10 C8          5.5915    1.5208   -0.7017 C.ar      1 <0>         0.5983
     11 N2          4.2666    1.5439   -0.6890 N.ar      1 <0>        -0.5481
     12 N3          6.2701    2.5086   -1.3970 N.pl3     1 <0>        -0.8146
     13 N4          6.0951   -1.4634    1.3306 N.pl3     1 <0>        -0.4778
     14 C9          4.9797   -2.0966    1.7945 C.2       1 <0>         0.2632
     15 N5          3.9124   -1.4689    1.3926 N.2       1 <0>        -0.4470
     16 C10         7.4833   -1.8661    1.5691 C.3       1 <0>         0.1548
     17 C11         8.0304   -1.1076    2.7508 C.ar      1 <0>        -0.1245
     18 C12         8.7442    0.0594    2.5530 C.ar      1 <0>        -0.0605
     19 C13         9.2461    0.7553    3.6367 C.ar      1 <0>        -0.0812
     20 C14         9.0348    0.2850    4.9197 C.ar      1 <0>        -0.1434
     21 C15         8.3212   -0.8811    5.1199 C.ar      1 <0>        -0.1077
     22 C16         7.8134   -1.5764    4.0352 C.ar      1 <0>         0.1219
     23 F1          7.1115   -2.7142    4.2300 F         1 <0>        -0.1242
     24 C17         9.5835    1.0444    6.1001 C.3       1 <0>         0.5102
     25 F2          8.6356    1.9761    6.5367 F         1 <0>        -0.1710
     26 F3          9.8707    0.1503    7.1371 F         1 <0>        -0.1723
     27 F4         10.7536    1.7117    5.7223 F         1 <0>        -0.1713
     28 H1         -0.8933    1.9747    0.0252 H         1 <0>         0.1557
     29 H2          1.6709    2.7985    0.0008 H         1 <0>         0.1561
     30 H3         -0.8670   -0.6453    0.0072 H         1 <0>         0.2104
     31 H4          7.2398    2.5059   -1.4210 H         1 <0>         0.4166
     32 H5          5.7755    3.2029   -1.8598 H         1 <0>         0.4191
     33 H6          4.9817   -2.9878    2.4046 H         1 <0>         0.2251
     34 H7          7.5211   -2.9358    1.7749 H         1 <0>         0.1169
     35 H8          8.0827   -1.6445    0.6861 H         1 <0>         0.1153
     36 H9          8.9101    0.4275    1.5513 H         1 <0>         0.1524
     37 H10         9.8039    1.6669    3.4812 H         1 <0>         0.1482
     38 H11         8.1566   -1.2484    6.1221 H         1 <0>         0.1541
@<TRIPOS>BOND
     1    1    5 2
     2    1    2 1
     3    1   28 1
     4    2    3 2
     5    2   29 1
     6    3    4 1
     7    3    6 1
     8    4    5 1
     9    5   30 1
    10    6   11 ar
    11    6    7 ar
    12    7   15 1
    13    7    8 ar
    14    8    9 ar
    15    8   13 1
    16    9   10 ar
    17   10   11 ar
    18   10   12 1
    19   12   31 1
    20   12   32 1
    21   13   14 1
    22   13   16 1
    23   14   15 2
    24   14   33 1
    25   16   17 1
    26   16   34 1
    27   16   35 1
    28   17   22 ar
    29   17   18 ar
    30   18   19 ar
    31   18   36 1
    32   19   20 ar
    33   19   37 1
    34   20   21 ar
    35   20   24 1
    36   21   22 ar
    37   21   38 1
    38   22   23 1
    39   24   25 1
    40   24   26 1
    41   24   27 1
