@<TRIPOS>MOLECULE
CHEMBL607376
   60    63     0     0     0
SMALL
USER_CHARGES

@<TRIPOS>ATOM
      1 C1          0.3391    1.7690   -0.1846 C.3       1 <0>        -0.1668
      2 C2          0.2747    0.2420   -0.1132 C.3       1 <0>         0.1122
      3 N1          0.9050   -0.3297   -1.3057 N.am      1 <0>        -0.7279
      4 C3          0.9652   -1.6672   -1.4605 C.2       1 <0>         0.5171
      5 O1          0.4977   -2.3975   -0.6126 O.2       1 <0>        -0.5280
      6 C4          1.6136   -2.2552   -2.6873 C.3       1 <0>        -0.1362
      7 H1          1.1012   -1.9062   -3.5837 H         1 <0>         0.1233
      8 C5          3.1028   -1.8562   -2.7406 C.3       1 <0>        -0.1194
      9 C6          3.8416   -3.0598   -2.1044 C.3       1 <0>         0.1419
     10 H2          3.7944   -3.0108   -1.0165 H         1 <0>         0.1304
     11 C7          3.0381   -4.2731   -2.6347 C.3       1 <0>         0.0847
     12 H3          3.3478   -4.5216   -3.6498 H         1 <0>         0.0908
     13 C8          1.5713   -3.7919   -2.6205 C.3       1 <0>         0.0710
     14 H4          1.0818   -4.1124   -1.7008 H         1 <0>         0.1108
     15 O2          0.8736   -4.3121   -3.7539 O.3       1 <0>        -0.3778
     16 C9         -0.5383   -4.4266   -3.5650 C.3       1 <0>         0.0303
     17 O3          3.2060   -5.3998   -1.7719 O.3       1 <0>        -0.3681
     18 C10         3.0537   -6.6609   -2.4264 C.3       1 <0>         0.0307
     19 N2          5.2329   -3.1146   -2.5598 N.pl3     1 <0>        -0.4583
     20 C11         5.6558   -3.2101   -3.8520 C.2       1 <0>         0.2510
     21 N3          6.9568   -3.2352   -3.8944 N.2       1 <0>        -0.4537
     22 C12         7.4512   -3.1576   -2.6369 C.ar      1 <0>        -0.1023
     23 C13         6.3508   -3.0731   -1.7638 C.ar      1 <0>         0.3130
     24 N4          6.5660   -2.9810   -0.4586 N.ar      1 <0>        -0.5316
     25 C14         7.8033   -2.9652    0.0223 C.ar      1 <0>         0.4940
     26 N5          8.8725   -3.0393   -0.7680 N.ar      1 <0>        -0.5711
     27 C15         8.7455   -3.1423   -2.0842 C.ar      1 <0>         0.5157
     28 N6          9.8624   -3.2170   -2.8981 N.pl3     1 <0>        -0.8136
     29 C16         7.9945   -2.8646    1.4379 C.1       1 <0>        -0.0762
     30 C17         8.1513   -2.7822    2.5985 C.1       1 <0>        -0.0613
     31 C18         8.3426   -2.6816    4.0141 C.ar      1 <0>         0.0432
     32 C19         7.2345   -2.6078    4.8663 C.ar      1 <0>        -0.1023
     33 C20         7.4163   -2.5123    6.2159 C.ar      1 <0>        -0.0671
     34 C21         8.7119   -2.4883    6.7479 C.ar      1 <0>        -0.1813
     35 C22         9.8203   -2.5622    5.8947 C.ar      1 <0>        -0.0599
     36 C23         9.6374   -2.6630    4.5457 C.ar      1 <0>        -0.1014
     37 C24         8.9081   -2.3851    8.2006 C.2       1 <0>         0.3805
     38 O4         10.0300   -2.3642    8.6610 O.2       1 <0>        -0.4556
     39 H5          1.3806    2.0868   -0.2328 H         1 <0>         0.0626
     40 H6         -0.1876    2.1136   -1.0745 H         1 <0>         0.0625
     41 H7         -0.1299    2.1943    0.7027 H         1 <0>         0.0768
     42 H8          0.8014   -0.1027    0.7768 H         1 <0>         0.0703
     43 H9         -0.7668   -0.0759   -0.0649 H         1 <0>         0.0695
     44 H10         1.2789    0.2544   -1.9839 H         1 <0>         0.4018
     45 H11         3.4230   -1.7144   -3.7728 H         1 <0>         0.0979
     46 H12         3.2763   -0.9511   -2.1586 H         1 <0>         0.0914
     47 H13        -0.9694   -3.4337   -3.4375 H         1 <0>         0.0420
     48 H14        -0.9836   -4.9070   -4.4362 H         1 <0>         0.0903
     49 H15        -0.7386   -5.0265   -2.6773 H         1 <0>         0.0481
     50 H16         3.2792   -7.4640   -1.7248 H         1 <0>         0.0897
     51 H17         2.0280   -6.7650   -2.7803 H         1 <0>         0.0497
     52 H18         3.7376   -6.7157   -3.2734 H         1 <0>         0.0443
     53 H19         5.0069   -3.2581   -4.7141 H         1 <0>         0.2230
     54 H20         9.7579   -3.2807   -3.8604 H         1 <0>         0.4214
     55 H21        10.7497   -3.2056   -2.5063 H         1 <0>         0.4125
     56 H22         6.2357   -2.6259    4.4561 H         1 <0>         0.1378
     57 H23         6.5614   -2.4550    6.8733 H         1 <0>         0.1409
     58 H24        10.8194   -2.5437    6.3044 H         1 <0>         0.1403
     59 H25        10.4919   -2.7241    3.8880 H         1 <0>         0.1371
     60 H26         8.0533   -2.3277    8.8582 H         1 <0>         0.1095
@<TRIPOS>BOND
     1    1    2 1
     2    1   39 1
     3    1   40 1
     4    1   41 1
     5    2    3 1
     6    2   42 1
     7    2   43 1
     8    3    4 am
     9    3   44 1
    10    4    5 2
    11    4    6 1
    12    6    7 1
    13    6   13 1
    14    6    8 1
    15    8    9 1
    16    8   45 1
    17    8   46 1
    18    9   10 1
    19    9   11 1
    20    9   19 1
    21   11   12 1
    22   11   13 1
    23   11   17 1
    24   13   14 1
    25   13   15 1
    26   15   16 1
    27   16   47 1
    28   16   48 1
    29   16   49 1
    30   17   18 1
    31   18   50 1
    32   18   51 1
    33   18   52 1
    34   19   23 1
    35   19   20 1
    36   20   21 2
    37   20   53 1
    38   21   22 1
    39   22   27 ar
    40   22   23 ar
    41   23   24 ar
    42   24   25 ar
    43   25   26 ar
    44   25   29 1
    45   26   27 ar
    46   27   28 1
    47   28   54 1
    48   28   55 1
    49   29   30 3
    50   30   31 1
    51   31   36 ar
    52   31   32 ar
    53   32   33 ar
    54   32   56 1
    55   33   34 ar
    56   33   57 1
    57   34   35 ar
    58   34   37 1
    59   35   36 ar
    60   35   58 1
    61   36   59 1
    62   37   38 2
    63   37   60 1
