@<TRIPOS>MOLECULE
CHEMBL491317
   46    49     0     0     0
SMALL
USER_CHARGES

@<TRIPOS>ATOM
      1 C1         -0.0178    1.4608    0.0101 C.3       1 <0>         0.1055
      2 N1          0.0021   -0.0041    0.0020 N.pl3     1 <0>        -0.6975
      3 C2          0.6215   -0.6945    1.0321 C.ar      1 <0>         0.5809
      4 N2          1.1848   -0.0098    2.0169 N.ar      1 <0>        -0.5434
      5 C3          1.7876   -0.6291    3.0221 C.ar      1 <0>         0.2212
      6 C4          1.8212   -2.0129    3.0293 C.ar      1 <0>        -0.0673
      7 C5          1.2164   -2.7069    1.9735 C.ar      1 <0>         0.3936
      8 N3          0.6278   -2.0189    1.0050 N.ar      1 <0>        -0.5573
      9 N4          1.3937   -4.0555    2.2285 N.am      1 <0>        -0.4626
     10 C6          2.0735   -4.1890    3.3832 C.2       1 <0>         0.6895
     11 O1          2.3927   -5.2482    3.8898 O.2       1 <0>        -0.5086
     12 N5          2.3470   -2.9719    3.8925 N.am      1 <0>        -0.5201
     13 C7          3.0710   -2.7035    5.1376 C.3       1 <0>         0.1778
     14 C8          2.0936   -2.6371    6.2827 C.ar      1 <0>        -0.1996
     15 C9          1.5107   -1.4297    6.6267 C.ar      1 <0>         0.1494
     16 C10         0.6128   -1.3699    7.6791 C.ar      1 <0>        -0.1672
     17 C11         0.2984   -2.5152    8.3860 C.ar      1 <0>        -0.0481
     18 C12         0.8801   -3.7212    8.0437 C.ar      1 <0>        -0.1680
     19 C13         1.7737   -3.7846    6.9877 C.ar      1 <0>         0.1569
     20 F1          2.3375   -4.9648    6.6494 F         1 <0>        -0.1114
     21 F2          1.8182   -0.3099    5.9362 F         1 <0>        -0.1267
     22 C14         0.9409   -5.1069    1.4201 C.ar      1 <0>         0.1821
     23 C15         0.2525   -4.8336    0.2450 C.ar      1 <0>        -0.1696
     24 C16        -0.1935   -5.8698   -0.5521 C.ar      1 <0>        -0.0582
     25 C17         0.0434   -7.1804   -0.1828 C.ar      1 <0>        -0.2169
     26 C18         0.7306   -7.4592    0.9900 C.ar      1 <0>         0.1490
     27 C19         1.1846   -6.4216    1.7896 C.ar      1 <0>        -0.1708
     28 O2          0.9629   -8.7483    1.3520 O.3       1 <0>        -0.3120
     29 C20         0.4713   -9.7662    0.4779 C.3       1 <0>         0.0264
     30 H1          1.0048    1.8381    0.0023 H         1 <0>         0.0622
     31 H2         -0.5450    1.8219   -0.8730 H         1 <0>         0.0788
     32 H3         -0.5280    1.8123    0.9069 H         1 <0>         0.0620
     33 H4         -0.4183   -0.4908   -0.7241 H         1 <0>         0.4171
     34 H5          2.2448   -0.0641    3.8209 H         1 <0>         0.1798
     35 H6          3.7898   -3.5025    5.3193 H         1 <0>         0.1166
     36 H7          3.5978   -1.7530    5.0539 H         1 <0>         0.1118
     37 H8          0.1582   -0.4278    7.9479 H         1 <0>         0.1470
     38 H9         -0.4020   -2.4676    9.2066 H         1 <0>         0.1477
     39 H10         0.6343   -4.6155    8.5971 H         1 <0>         0.1469
     40 H11         0.0655   -3.8104   -0.0454 H         1 <0>         0.1542
     41 H12        -0.7285   -5.6555   -1.4654 H         1 <0>         0.1347
     42 H13        -0.3070   -7.9886   -0.8077 H         1 <0>         0.1328
     43 H14         1.7232   -6.6365    2.7007 H         1 <0>         0.1649
     44 H15         0.7235  -10.7461    0.8832 H         1 <0>         0.1024
     45 H16        -0.6115   -9.6774    0.3895 H         1 <0>         0.0570
     46 H17         0.9268   -9.6517   -0.5057 H         1 <0>         0.0572
@<TRIPOS>BOND
     1    1    2 1
     2    1   30 1
     3    1   31 1
     4    1   32 1
     5    2    3 1
     6    2   33 1
     7    3    8 ar
     8    3    4 ar
     9    4    5 ar
    10    5    6 ar
    11    5   34 1
    12    6   12 1
    13    6    7 ar
    14    7    8 ar
    15    7    9 1
    16    9   10 am
    17    9   22 1
    18   10   11 2
    19   10   12 am
    20   12   13 1
    21   13   14 1
    22   13   35 1
    23   13   36 1
    24   14   19 ar
    25   14   15 ar
    26   15   16 ar
    27   15   21 1
    28   16   17 ar
    29   16   37 1
    30   17   18 ar
    31   17   38 1
    32   18   19 ar
    33   18   39 1
    34   19   20 1
    35   22   27 ar
    36   22   23 ar
    37   23   24 ar
    38   23   40 1
    39   24   25 ar
    40   24   41 1
    41   25   26 ar
    42   25   42 1
    43   26   27 ar
    44   26   28 1
    45   27   43 1
    46   28   29 1
    47   29   44 1
    48   29   45 1
    49   29   46 1
