@<TRIPOS>MOLECULE
CHEMBL487553
   58    61     0     0     0
SMALL
USER_CHARGES

@<TRIPOS>ATOM
      1 C1         -0.1777    1.0956   -1.5753 C.3       1 <0>        -0.0737
      2 C2         -0.0767   -0.3823   -1.2983 C.2       1 <0>         0.0915
      3 C3         -0.2603   -1.4059   -2.2357 C.2       1 <0>        -0.2646
      4 C4         -0.0869   -2.5879   -1.6021 C.2       1 <0>         0.1210
      5 N1          0.1983   -2.3188   -0.3007 N.pl3     1 <0>        -0.3189
      6 N2          0.2030   -0.9268   -0.1426 N.2       1 <0>        -0.2613
      7 C5          0.4466   -3.2604    0.6981 C.ar      1 <0>         0.5978
      8 N3          0.5748   -2.8519    1.9487 N.ar      1 <0>        -0.5196
      9 C6          0.8120   -3.7216    2.9298 C.ar      1 <0>         0.2707
     10 C7          0.9241   -5.0757    2.6209 C.ar      1 <0>        -0.2431
     11 C8          0.7824   -5.4645    1.2901 C.ar      1 <0>         0.4335
     12 N4          0.5419   -4.5381    0.3682 N.ar      1 <0>        -0.5282
     13 N5          0.8860   -6.8045    0.9325 N.am      1 <0>        -0.6541
     14 C9          0.8534   -7.1596   -0.3673 C.2       1 <0>         0.5012
     15 O1          0.6404   -6.3232   -1.2191 O.2       1 <0>        -0.4680
     16 C10         1.0816   -8.5960   -0.7619 C.3       1 <0>        -0.1707
     17 C11         0.9551   -3.2549    4.3312 C.ar      1 <0>         0.1994
     18 C12         0.8348   -1.8996    4.6215 C.ar      1 <0>        -0.1706
     19 C13         0.9698   -1.4736    5.9343 C.ar      1 <0>        -0.0381
     20 C14         1.2208   -2.4178    6.9145 C.ar      1 <0>        -0.2178
     21 C15         1.3298   -3.7591    6.5564 C.ar      1 <0>         0.4095
     22 N6          1.1912   -4.1351    5.2962 N.ar      1 <0>        -0.5239
     23 N7          1.5823   -4.7135    7.5348 N.pl3     1 <0>        -0.6109
     24 C16         1.9454   -6.0880    7.1638 C.3       1 <0>         0.1309
     25 C17         3.2518   -6.4610    7.8717 C.3       1 <0>        -0.1337
     26 C18         3.0932   -6.2374    9.3774 C.3       1 <0>         0.0900
     27 C19         2.8025   -4.7593    9.6475 C.3       1 <0>        -0.1590
     28 C20         1.4970   -4.3655    8.9597 C.3       1 <0>         0.1266
     29 O2          4.2993   -6.6149   10.0443 O.3       1 <0>        -0.3846
     30 C21         4.1014   -7.0961   11.3752 C.3       1 <0>         0.0298
     31 C22        -0.1918   -3.9558   -2.2258 C.3       1 <0>        -0.0818
     32 H1          0.7992    1.4773   -1.8720 H         1 <0>         0.0815
     33 H2         -0.8940    1.2664   -2.3790 H         1 <0>         0.0820
     34 H3         -0.5115    1.6119   -0.6753 H         1 <0>         0.0764
     35 H4         -0.4984   -1.2745   -3.2809 H         1 <0>         0.1584
     36 H5          1.1163   -5.8055    3.3934 H         1 <0>         0.1639
     37 H6          0.9819   -7.4835    1.6185 H         1 <0>         0.4254
     38 H7          0.1278   -9.1231   -0.7824 H         1 <0>         0.1000
     39 H8          1.5383   -8.6328   -1.7509 H         1 <0>         0.1013
     40 H9          1.7438   -9.0709   -0.0380 H         1 <0>         0.0842
     41 H10         0.6390   -1.1875    3.8335 H         1 <0>         0.1485
     42 H11         0.8812   -0.4272    6.1864 H         1 <0>         0.1410
     43 H12         1.3313   -2.1176    7.9460 H         1 <0>         0.1376
     44 H13         1.1543   -6.7710    7.4731 H         1 <0>         0.0630
     45 H14         2.0839   -6.1506    6.0845 H         1 <0>         0.0987
     46 H15         3.4819   -7.5093    7.6819 H         1 <0>         0.0818
     47 H16         4.0613   -5.8361    7.4944 H         1 <0>         0.0751
     48 H17         2.2676   -6.8438    9.7496 H         1 <0>         0.0623
     49 H18         2.7129   -4.5965   10.7216 H         1 <0>         0.0782
     50 H19         3.6162   -4.1505    9.2534 H         1 <0>         0.0775
     51 H20         1.3397   -3.2920    9.0649 H         1 <0>         0.0897
     52 H21         0.6685   -4.9050    9.4187 H         1 <0>         0.0687
     53 H22         3.6313   -6.3180   11.9767 H         1 <0>         0.0414
     54 H23         3.4580   -7.9756   11.3517 H         1 <0>         0.0421
     55 H24         5.0639   -7.3616   11.8125 H         1 <0>         0.0868
     56 H25         0.8023   -4.3050   -2.5049 H         1 <0>         0.0849
     57 H26        -0.6325   -4.6490   -1.5093 H         1 <0>         0.0992
     58 H27        -0.8210   -3.9027   -3.1142 H         1 <0>         0.0713
@<TRIPOS>BOND
     1    1    2 1
     2    1   32 1
     3    1   33 1
     4    1   34 1
     5    2    6 2
     6    2    3 1
     7    3    4 2
     8    3   35 1
     9    4    5 1
    10    4   31 1
    11    5    6 1
    12    5    7 1
    13    7   12 ar
    14    7    8 ar
    15    8    9 ar
    16    9   10 ar
    17    9   17 1
    18   10   11 ar
    19   10   36 1
    20   11   12 ar
    21   11   13 1
    22   13   14 am
    23   13   37 1
    24   14   15 2
    25   14   16 1
    26   16   38 1
    27   16   39 1
    28   16   40 1
    29   17   22 ar
    30   17   18 ar
    31   18   19 ar
    32   18   41 1
    33   19   20 ar
    34   19   42 1
    35   20   21 ar
    36   20   43 1
    37   21   22 ar
    38   21   23 1
    39   23   28 1
    40   23   24 1
    41   24   25 1
    42   24   44 1
    43   24   45 1
    44   25   26 1
    45   25   46 1
    46   25   47 1
    47   26   27 1
    48   26   29 1
    49   26   48 1
    50   27   28 1
    51   27   49 1
    52   27   50 1
    53   28   51 1
    54   28   52 1
    55   29   30 1
    56   30   53 1
    57   30   54 1
    58   30   55 1
    59   31   56 1
    60   31   57 1
    61   31   58 1
