@<TRIPOS>MOLECULE
CHEMBL472026
   60    63     0     0     0
SMALL
USER_CHARGES

@<TRIPOS>ATOM
      1 C1         -1.6259   -0.7842    3.1692 C.3       1 <0>        -0.0743
      2 C2         -1.0080   -2.1169    2.8328 C.2       1 <0>         0.0960
      3 C3         -1.0420   -2.7430    1.5811 C.2       1 <0>        -0.2619
      4 C4         -0.3788   -3.9171    1.6836 C.2       1 <0>         0.1225
      5 N1          0.0620   -4.0298    2.9644 N.pl3     1 <0>        -0.3218
      6 N2         -0.3439   -2.8828    3.6591 N.2       1 <0>        -0.2668
      7 C5          0.7918   -5.0951    3.4919 C.ar      1 <0>         0.6057
      8 N3          1.0253   -5.1327    4.7926 N.ar      1 <0>        -0.5279
      9 C6          1.7186   -6.1342    5.3327 C.ar      1 <0>         0.2609
     10 C7          2.1981   -7.1484    4.5055 C.ar      1 <0>        -0.2745
     11 C8          1.9301   -7.0709    3.1408 C.ar      1 <0>         0.4449
     12 N4          1.2267   -6.0426    2.6774 N.ar      1 <0>        -0.5298
     13 N5          2.3876   -8.0590    2.2755 N.am      1 <0>        -0.6555
     14 C9          2.2163   -7.9222    0.9457 C.2       1 <0>         0.5012
     15 O1          1.5769   -6.9887    0.5095 O.2       1 <0>        -0.4640
     16 C10         2.8193   -8.9295    0.0007 C.3       1 <0>        -0.1730
     17 C11         1.9768   -6.1690    6.7930 C.ar      1 <0>        -0.0114
     18 C12         2.7080   -7.2177    7.3489 C.ar      1 <0>        -0.1133
     19 C13         2.9468   -7.2478    8.7079 C.ar      1 <0>        -0.0817
     20 C14         2.4628   -6.2401    9.5213 C.ar      1 <0>        -0.1907
     21 C15         1.7335   -5.1926    8.9760 C.ar      1 <0>         0.1115
     22 C16         1.4943   -5.1511    7.6120 C.ar      1 <0>        -0.0897
     23 O2          1.2588   -4.2046    9.7794 O.3       1 <0>        -0.2936
     24 C17         1.4709   -4.3531   11.1848 C.3       1 <0>         0.0694
     25 C18         2.8813   -3.8755   11.5424 C.3       1 <0>        -0.1693
     26 C19         3.0706   -3.9652   13.0594 C.3       1 <0>        -0.1424
     27 C20         1.9853   -3.1393   13.7532 C.3       1 <0>        -0.0122
     28 N6          0.6620   -3.6616   13.3920 N.4       1 <0>        -0.3791
     29 C21         0.4448   -3.5128   11.9480 C.3       1 <0>        -0.0062
     30 C22        -0.3728   -2.9158   14.1207 C.3       1 <0>        -0.0459
     31 C23        -0.1675   -4.9194    0.5783 C.3       1 <0>        -0.0826
     32 H1         -0.9010    0.0089    2.9859 H         1 <0>         0.0828
     33 H2         -2.5054   -0.6238    2.5457 H         1 <0>         0.0841
     34 H3         -1.9181   -0.7739    4.2193 H         1 <0>         0.0751
     35 H4         -1.5150   -2.3566    0.6904 H         1 <0>         0.1607
     36 H5          2.7636   -7.9736    4.9125 H         1 <0>         0.1583
     37 H6          2.8300   -8.8465    2.6290 H         1 <0>         0.4260
     38 H7          2.4157   -9.9185    0.2179 H         1 <0>         0.0945
     39 H8          2.5764   -8.6554   -1.0259 H         1 <0>         0.1025
     40 H9          3.9019   -8.9432    0.1267 H         1 <0>         0.0946
     41 H10         3.0872   -8.0066    6.7162 H         1 <0>         0.1373
     42 H11         3.5132   -8.0611    9.1372 H         1 <0>         0.1378
     43 H12         2.6523   -6.2682   10.5841 H         1 <0>         0.1298
     44 H13         0.9314   -4.3339    7.1856 H         1 <0>         0.1517
     45 H14         1.3601   -5.4018   11.4608 H         1 <0>         0.0940
     46 H15         3.6171   -4.5074   11.0452 H         1 <0>         0.1020
     47 H16         3.0089   -2.8422   11.2196 H         1 <0>         0.0965
     48 H17         2.9936   -5.0057   13.3749 H         1 <0>         0.0905
     49 H18         4.0524   -3.5747   13.3274 H         1 <0>         0.1207
     50 H19         2.1173   -3.2008   14.8334 H         1 <0>         0.1367
     51 H20         2.0634   -2.0990   13.4372 H         1 <0>         0.1328
     52 H21         0.5558   -2.4645   11.6705 H         1 <0>         0.1423
     53 H22        -0.5604   -3.8501   11.6955 H         1 <0>         0.1417
     54 H23        -0.3138   -1.8600   13.8564 H         1 <0>         0.1248
     55 H24        -1.3560   -3.3030   13.8533 H         1 <0>         0.1265
     56 H25        -0.2163   -3.0311   15.1933 H         1 <0>         0.1283
     57 H26         0.8119   -4.7613    0.1267 H         1 <0>         0.0868
     58 H27        -0.2202   -5.9283    0.9876 H         1 <0>         0.0975
     59 H28        -0.9413   -4.7937   -0.1790 H         1 <0>         0.0740
     60 H29         0.6077   -4.6381   13.6404 H         1 <0>         0.4251
@<TRIPOS>BOND
     1    1    2 1
     2    1   32 1
     3    1   33 1
     4    1   34 1
     5    2    6 2
     6    2    3 1
     7    3    4 2
     8    3   35 1
     9    4    5 1
    10    4   31 1
    11    5    6 1
    12    5    7 1
    13    7   12 ar
    14    7    8 ar
    15    8    9 ar
    16    9   10 ar
    17    9   17 1
    18   10   11 ar
    19   10   36 1
    20   11   12 ar
    21   11   13 1
    22   13   14 am
    23   13   37 1
    24   14   15 2
    25   14   16 1
    26   16   38 1
    27   16   39 1
    28   16   40 1
    29   17   22 ar
    30   17   18 ar
    31   18   19 ar
    32   18   41 1
    33   19   20 ar
    34   19   42 1
    35   20   21 ar
    36   20   43 1
    37   21   22 ar
    38   21   23 1
    39   22   44 1
    40   23   24 1
    41   24   29 1
    42   24   25 1
    43   24   45 1
    44   25   26 1
    45   25   46 1
    46   25   47 1
    47   26   27 1
    48   26   48 1
    49   26   49 1
    50   27   28 1
    51   27   50 1
    52   27   51 1
    53   28   29 1
    54   28   30 1
    55   28   60 1
    56   29   52 1
    57   29   53 1
    58   30   54 1
    59   30   55 1
    60   30   56 1
    61   31   57 1
    62   31   58 1
    63   31   59 1
