@<TRIPOS>MOLECULE
CHEMBL131457
   80    85     0     0     0
SMALL
USER_CHARGES

@<TRIPOS>ATOM
      1 C1         -1.7472   -1.8566   -5.4815 C.3       1 <0>        -0.1677
      2 C2         -1.4234   -3.2601   -4.9654 C.3       1 <0>         0.1136
      3 N1         -0.9638   -3.1758   -3.5769 N.am      1 <0>        -0.7278
      4 C3         -0.6199   -4.2964   -2.9118 C.2       1 <0>         0.5158
      5 O1         -0.6909   -5.3746   -3.4627 O.2       1 <0>        -0.5029
      6 C4         -0.1471   -4.2098   -1.4835 C.3       1 <0>         0.0322
      7 H1         -0.8871   -3.7012   -0.8656 H         1 <0>         0.1206
      8 C5          1.2208   -3.4851   -1.4044 C.3       1 <0>         0.0505
      9 H2          1.8519   -3.7518   -2.2522 H         1 <0>         0.0943
     10 C6          1.8063   -4.0409   -0.0834 C.3       1 <0>         0.0835
     11 H3          2.8716   -4.2436   -0.1938 H         1 <0>         0.0896
     12 C7          1.0297   -5.3508    0.1523 C.3       1 <0>         0.3172
     13 H4          0.4576   -5.2812    1.0775 H         1 <0>         0.1279
     14 O2          0.1342   -5.5257   -0.9603 O.3       1 <0>        -0.3266
     15 N2          1.9636   -6.4770    0.2279 N.pl3     1 <0>        -0.4787
     16 C8          2.3235   -7.2980   -0.8008 C.2       1 <0>         0.2465
     17 N3          3.1712   -8.1908   -0.3807 N.2       1 <0>        -0.4479
     18 C9          3.4091   -8.0008    0.9405 C.ar      1 <0>        -0.1490
     19 C10         2.6414   -6.8960    1.3447 C.ar      1 <0>         0.3557
     20 N4          2.7001   -6.4947    2.6106 N.ar      1 <0>        -0.6093
     21 C11         3.4729   -7.1239    3.4810 C.ar      1 <0>         0.6339
     22 N5          4.2163   -8.1693    3.1419 N.ar      1 <0>        -0.6165
     23 C12         4.2119   -8.6412    1.9001 C.ar      1 <0>         0.5433
     24 N6          4.9917   -9.7310    1.5555 N.pl3     1 <0>        -0.6877
     25 C13         5.8226  -10.3868    2.5683 C.3       1 <0>         0.1396
     26 C14         6.5783  -11.5541    1.9303 C.3       1 <0>        -0.0209
     27 C15         7.5454  -11.0249    0.9028 C.ar      1 <0>        -0.0770
     28 C16         7.5325  -11.5307   -0.3836 C.ar      1 <0>        -0.1130
     29 C17         8.4197  -11.0453   -1.3260 C.ar      1 <0>        -0.1158
     30 C18         9.3193  -10.0537   -0.9822 C.ar      1 <0>        -0.1197
     31 C19         9.3315   -9.5472    0.3039 C.ar      1 <0>        -0.1171
     32 C20         8.4415  -10.0296    1.2452 C.ar      1 <0>        -0.1076
     33 C21         7.3369  -12.3035    2.9952 C.ar      1 <0>        -0.0709
     34 C22         8.1724  -11.6202    3.8588 C.ar      1 <0>        -0.1101
     35 C23         8.8683  -12.3076    4.8357 C.ar      1 <0>        -0.1160
     36 C24         8.7283  -13.6781    4.9491 C.ar      1 <0>        -0.1195
     37 C25         7.8921  -14.3613    4.0860 C.ar      1 <0>        -0.1176
     38 C26         7.1929  -13.6733    3.1119 C.ar      1 <0>        -0.1105
     39 N7          3.5074   -6.6755    4.7912 N.pl3     1 <0>        -0.6891
     40 C27         4.3544   -7.3537    5.7755 C.3       1 <0>         0.1673
     41 H5          5.2650   -7.7156    5.2979 H         1 <0>         0.1080
     42 C28         3.5870   -8.5315    6.4108 C.3       1 <0>        -0.1306
     43 C29         4.0415   -8.5264    7.8915 C.3       1 <0>        -0.1209
     44 C30         4.1409   -7.0146    8.2133 C.3       1 <0>        -0.1554
     45 C31         4.7076   -6.3888    6.9209 C.3       1 <0>         0.0929
     46 H6          4.2488   -5.4160    6.7444 H         1 <0>         0.0622
     47 O3          6.1261   -6.2502    7.0243 O.3       1 <0>        -0.5594
     48 O4          1.5815   -3.1232    0.9886 O.3       1 <0>        -0.5322
     49 O5          1.0441   -2.0691   -1.3288 O.3       1 <0>        -0.5369
     50 H7         -0.8525   -1.2359   -5.4320 H         1 <0>         0.0636
     51 H8         -2.0892   -1.9193   -6.5146 H         1 <0>         0.0790
     52 H9         -2.5305   -1.4148   -4.8657 H         1 <0>         0.0643
     53 H10        -2.3181   -3.8808   -5.0150 H         1 <0>         0.0728
     54 H11        -0.6401   -3.7020   -5.5813 H         1 <0>         0.0726
     55 H12        -0.9070   -2.3136   -3.1363 H         1 <0>         0.3976
     56 H13         1.9580   -7.2186   -1.8140 H         1 <0>         0.2196
     57 H14         4.9882  -10.0608    0.6433 H         1 <0>         0.4194
     58 H15         6.5367   -9.6693    2.9726 H         1 <0>         0.0746
     59 H16         5.1884  -10.7605    3.3722 H         1 <0>         0.0763
     60 H17         5.8684  -12.2266    1.4486 H         1 <0>         0.0937
     61 H18         6.8297  -12.3055   -0.6522 H         1 <0>         0.1217
     62 H19         8.4101  -11.4410   -2.3309 H         1 <0>         0.1221
     63 H20        10.0129   -9.6749   -1.7184 H         1 <0>         0.1203
     64 H21        10.0346   -8.7727    0.5727 H         1 <0>         0.1205
     65 H22         8.4486   -9.6313    2.2491 H         1 <0>         0.1206
     66 H23         8.2818  -10.5494    3.7702 H         1 <0>         0.1225
     67 H24         9.5216  -11.7739    5.5100 H         1 <0>         0.1226
     68 H25         9.2725  -14.2153    5.7118 H         1 <0>         0.1214
     69 H26         7.7829  -15.4321    4.1744 H         1 <0>         0.1224
     70 H27         6.5367  -14.2066    2.4400 H         1 <0>         0.1217
     71 H28         2.9707   -5.9125    5.0569 H         1 <0>         0.4121
     72 H29         2.5116   -8.3680    6.3413 H         1 <0>         0.0705
     73 H30         3.8630   -9.4702    5.9303 H         1 <0>         0.0761
     74 H31         3.2973   -9.0082    8.5257 H         1 <0>         0.0696
     75 H32         5.0129   -9.0089    7.9991 H         1 <0>         0.0728
     76 H33         3.1549   -6.6061    8.4349 H         1 <0>         0.0754
     77 H34         4.8211   -6.8462    9.0483 H         1 <0>         0.0749
     78 H35         6.4126   -5.6537    7.7294 H         1 <0>         0.3809
     79 H36         2.0014   -2.2612    0.8630 H         1 <0>         0.3953
     80 H37         0.5982   -1.6868   -2.0969 H         1 <0>         0.3834
@<TRIPOS>BOND
     1    1    2 1
     2    1   50 1
     3    1   51 1
     4    1   52 1
     5    2    3 1
     6    2   53 1
     7    2   54 1
     8    3    4 am
     9    3   55 1
    10    4    5 2
    11    4    6 1
    12    6    7 1
    13    6   14 1
    14    6    8 1
    15    8    9 1
    16    8   10 1
    17    8   49 1
    18   10   11 1
    19   10   12 1
    20   10   48 1
    21   12   13 1
    22   12   14 1
    23   12   15 1
    24   15   19 1
    25   15   16 1
    26   16   17 2
    27   16   56 1
    28   17   18 1
    29   18   23 ar
    30   18   19 ar
    31   19   20 ar
    32   20   21 ar
    33   21   22 ar
    34   21   39 1
    35   22   23 ar
    36   23   24 1
    37   24   25 1
    38   24   57 1
    39   25   26 1
    40   25   58 1
    41   25   59 1
    42   26   27 1
    43   26   33 1
    44   26   60 1
    45   27   32 ar
    46   27   28 ar
    47   28   29 ar
    48   28   61 1
    49   29   30 ar
    50   29   62 1
    51   30   31 ar
    52   30   63 1
    53   31   32 ar
    54   31   64 1
    55   32   65 1
    56   33   38 ar
    57   33   34 ar
    58   34   35 ar
    59   34   66 1
    60   35   36 ar
    61   35   67 1
    62   36   37 ar
    63   36   68 1
    64   37   38 ar
    65   37   69 1
    66   38   70 1
    67   39   40 1
    68   39   71 1
    69   40   41 1
    70   40   45 1
    71   40   42 1
    72   42   43 1
    73   42   72 1
    74   42   73 1
    75   43   44 1
    76   43   74 1
    77   43   75 1
    78   44   45 1
    79   44   76 1
    80   44   77 1
    81   45   46 1
    82   45   47 1
    83   47   78 1
    84   48   79 1
    85   49   80 1
