@<TRIPOS>MOLECULE
CHEMBL273094
   60    62     0     0     0
SMALL
USER_CHARGES

@<TRIPOS>ATOM
      1 C1         -0.0187    1.5258    0.0104 C.3       1 <0>        -0.1471
      2 C2          0.0021   -0.0041    0.0020 C.3       1 <0>        -0.1387
      3 C3          0.7421   -0.5109    1.2415 C.3       1 <0>         0.1191
      4 N1          0.7619   -1.9757    1.2335 N.am      1 <0>        -0.5089
      5 C4         -0.2660   -2.6852    1.8352 C.2       1 <0>         0.3304
      6 C5         -0.2227   -4.0758    1.8133 C.2       1 <0>        -0.1422
      7 C6          0.8615   -4.7197    1.1820 C.2       1 <0>         0.5924
      8 O1          0.9214   -5.9360    1.1495 O.2       1 <0>        -0.5083
      9 N2          1.8315   -3.9736    0.6140 N.am      1 <0>        -0.5477
     10 C7          1.7755   -2.6309    0.6370 C.2       1 <0>         0.7072
     11 O2          2.6654   -1.9916    0.1098 O.2       1 <0>        -0.5249
     12 C8          2.9605   -4.6372   -0.0428 C.3       1 <0>         0.1129
     13 C9          2.6266   -4.8717   -1.5174 C.3       1 <0>        -0.1374
     14 C10         3.8056   -5.5648   -2.2033 C.3       1 <0>        -0.1480
     15 N3         -1.3547   -4.5134    2.4751 N.pl3     1 <0>        -0.5145
     16 H1         -1.6145   -5.4351    2.6295 H         1 <0>         0.4367
     17 C11        -2.0346   -3.4010    2.8692 C.2       1 <0>         0.3401
     18 N4         -1.3747   -2.3269    2.4814 N.2       1 <0>        -0.4837
     19 C12        -3.3101   -3.3980    3.6137 C.ar      1 <0>        -0.0657
     20 C13        -3.9128   -4.6051    3.9751 C.ar      1 <0>        -0.0542
     21 C14        -5.1027   -4.5980    4.6695 C.ar      1 <0>        -0.1387
     22 C15        -5.7034   -3.3923    5.0099 C.ar      1 <0>         0.1457
     23 C16        -5.1073   -2.1895    4.6519 C.ar      1 <0>        -0.2098
     24 C17        -3.9140   -2.1879    3.9633 C.ar      1 <0>        -0.0207
     25 O3         -6.8764   -3.3895    5.6940 O.3       1 <0>        -0.2870
     26 C18        -7.4391   -2.1150    6.0117 C.3       1 <0>         0.0400
     27 C19        -8.7293   -2.3094    6.7658 C.2       1 <0>         0.5236
     28 O4         -9.1277   -3.4291    7.0073 O.2       1 <0>        -0.4949
     29 N5         -9.4404   -1.2389    7.1718 N.am      1 <0>        -0.7330
     30 C20       -10.6947   -1.4279    7.9048 C.3       1 <0>         0.0930
     31 C21       -11.2971   -0.0632    8.2450 C.3       1 <0>        -0.0193
     32 N6        -12.5548   -0.2527    8.9800 N.4       1 <0>        -0.6320
     33 H2          1.0039    1.9031    0.0027 H         1 <0>         0.0600
     34 H3         -0.5459    1.8868   -0.8726 H         1 <0>         0.0609
     35 H4         -0.5289    1.8773    0.9072 H         1 <0>         0.0576
     36 H5         -1.0205   -0.3814    0.0098 H         1 <0>         0.0670
     37 H6          0.5123   -0.3556   -0.8948 H         1 <0>         0.0690
     38 H7          1.7647   -0.1336    1.2338 H         1 <0>         0.1016
     39 H8          0.2319   -0.1594    2.1383 H         1 <0>         0.0980
     40 H9          3.8466   -4.0071    0.0334 H         1 <0>         0.1045
     41 H10         3.1521   -5.5940    0.4430 H         1 <0>         0.1025
     42 H11         1.7404   -5.5018   -1.5935 H         1 <0>         0.0669
     43 H12         2.4349   -3.9149   -2.0031 H         1 <0>         0.0692
     44 H13         3.5678   -5.7318   -3.2538 H         1 <0>         0.0622
     45 H14         4.6918   -4.9347   -2.1271 H         1 <0>         0.0604
     46 H15         3.9973   -6.5215   -1.7175 H         1 <0>         0.0594
     47 H16        -3.4469   -5.5427    3.7102 H         1 <0>         0.1344
     48 H17        -5.5694   -5.5309    4.9493 H         1 <0>         0.1444
     49 H18        -5.5777   -1.2543    4.9178 H         1 <0>         0.1367
     50 H19        -3.4487   -1.2525    3.6898 H         1 <0>         0.1478
     51 H20        -6.7387   -1.5523    6.6290 H         1 <0>         0.1028
     52 H21        -7.6354   -1.5649    5.0914 H         1 <0>         0.1028
     53 H22        -9.1218   -0.3433    6.9786 H         1 <0>         0.4114
     54 H23       -11.3950   -1.9906    7.2875 H         1 <0>         0.0931
     55 H24       -10.4983   -1.9780    8.8251 H         1 <0>         0.0931
     56 H25       -10.5968    0.4994    8.8622 H         1 <0>         0.1426
     57 H26       -11.4935    0.4868    7.3247 H         1 <0>         0.1426
     58 H27       -13.2031   -0.7736    8.4086 H         1 <0>         0.4398
     59 H28       -12.3731   -0.7620    9.8319 H         1 <0>         0.4398
     60 H29       -12.9521    0.6472    9.2044 H         1 <0>         0.4453
@<TRIPOS>BOND
     1    1    2 1
     2    1   33 1
     3    1   34 1
     4    1   35 1
     5    2    3 1
     6    2   36 1
     7    2   37 1
     8    3    4 1
     9    3   38 1
    10    3   39 1
    11    4   10 am
    12    4    5 1
    13    5   18 1
    14    5    6 2
    15    6    7 1
    16    6   15 1
    17    7    8 2
    18    7    9 am
    19    9   10 am
    20    9   12 1
    21   10   11 2
    22   12   13 1
    23   12   40 1
    24   12   41 1
    25   13   14 1
    26   13   42 1
    27   13   43 1
    28   14   44 1
    29   14   45 1
    30   14   46 1
    31   15   16 1
    32   15   17 1
    33   17   18 2
    34   17   19 1
    35   19   24 ar
    36   19   20 ar
    37   20   21 ar
    38   20   47 1
    39   21   22 ar
    40   21   48 1
    41   22   23 ar
    42   22   25 1
    43   23   24 ar
    44   23   49 1
    45   24   50 1
    46   25   26 1
    47   26   27 1
    48   26   51 1
    49   26   52 1
    50   27   28 2
    51   27   29 am
    52   29   30 1
    53   29   53 1
    54   30   31 1
    55   30   54 1
    56   30   55 1
    57   31   32 1
    58   31   56 1
    59   31   57 1
    60   32   58 1
    61   32   59 1
    62   32   60 1
