@<TRIPOS>MOLECULE
CHEMBL252345
   44    47     0     0     0
SMALL
USER_CHARGES

@<TRIPOS>ATOM
      1 C1         -0.0161    1.3438    0.0066 C.2       1 <0>        -0.2250
      2 C2          1.3237    1.7749   -0.0031 C.2       1 <0>        -0.1139
      3 C3          2.0958    0.6545   -0.0180 C.2       1 <0>         0.0106
      4 O1          1.2788   -0.4172   -0.0175 O.3       1 <0>        -0.1543
      5 C4          0.0024   -0.0047   -0.0027 C.2       1 <0>        -0.0053
      6 C5          3.5708    0.6192   -0.0329 C.ar      1 <0>         0.4652
      7 N1          4.2462    1.7631   -0.0269 N.ar      1 <0>        -0.5057
      8 C6          5.5743    1.7677   -0.0400 C.ar      1 <0>         0.4404
      9 C7          6.2570    0.5530   -0.0602 C.ar      1 <0>        -0.2658
     10 C8          5.5166   -0.6244   -0.0659 C.ar      1 <0>         0.4530
     11 N2          4.1902   -0.5554   -0.0466 N.ar      1 <0>        -0.5532
     12 N3          6.1596   -1.8636   -0.0860 N.pl3     1 <0>        -0.3329
     13 C9          5.5539   -3.0800   -0.0990 C.2       1 <0>         0.0841
     14 C10         6.5254   -4.0207   -0.1178 C.2       1 <0>        -0.2572
     15 C11         7.7620   -3.3645   -0.1162 C.2       1 <0>         0.0757
     16 N4          7.5444   -2.0749   -0.1026 N.2       1 <0>        -0.2832
     17 N5          6.2747    2.9695   -0.0340 N.am      1 <0>        -0.6540
     18 C12         5.6085    4.1381   -0.1178 C.2       1 <0>         0.5048
     19 O2          4.3959    4.1470   -0.1054 O.2       1 <0>        -0.4399
     20 C13         6.3705    5.4337   -0.2268 C.3       1 <0>         0.0388
     21 N6          5.4233    6.5539   -0.3038 N.3       1 <0>        -0.5204
     22 C14         4.6496    6.5047   -1.5528 C.3       1 <0>         0.0110
     23 C15         3.6362    7.6522   -1.5646 C.3       1 <0>         0.0659
     24 O3          4.3277    8.8938   -1.4046 O.3       1 <0>        -0.3859
     25 C16         5.0912    8.9763   -0.1981 C.3       1 <0>         0.0639
     26 C17         6.1192    7.8422   -0.1725 C.3       1 <0>         0.0183
     27 H1         -0.8931    1.9738    0.0232 H         1 <0>         0.1580
     28 H2          1.6717    2.7973   -0.0001 H         1 <0>         0.1668
     29 H3         -0.8665   -0.6462    0.0015 H         1 <0>         0.2122
     30 H4          7.3366    0.5265   -0.0714 H         1 <0>         0.1639
     31 H5          4.4894   -3.2625   -0.0946 H         1 <0>         0.1866
     32 H6          6.3739   -5.0899   -0.1315 H         1 <0>         0.1619
     33 H7          8.7307   -3.8419   -0.1281 H         1 <0>         0.1985
     34 H8          7.2425    2.9664    0.0305 H         1 <0>         0.4247
     35 H9          7.0071    5.5556    0.6496 H         1 <0>         0.1129
     36 H10         6.9879    5.4175   -1.1249 H         1 <0>         0.0728
     37 H11         5.3241    6.6060   -2.4031 H         1 <0>         0.0404
     38 H12         4.1223    5.5529   -1.6171 H         1 <0>         0.1039
     39 H13         3.0995    7.6542   -2.5133 H         1 <0>         0.0994
     40 H14         2.9288    7.5215   -0.7458 H         1 <0>         0.0635
     41 H15         5.6067    9.9359   -0.1585 H         1 <0>         0.1009
     42 H16         4.4260    8.8841    0.6605 H         1 <0>         0.0621
     43 H17         6.6648    7.8667    0.7709 H         1 <0>         0.0897
     44 H18         6.8172    7.9649   -1.0006 H         1 <0>         0.0469
@<TRIPOS>BOND
     1    1    5 2
     2    1    2 1
     3    1   27 1
     4    2    3 2
     5    2   28 1
     6    3    4 1
     7    3    6 1
     8    4    5 1
     9    5   29 1
    10    6   11 ar
    11    6    7 ar
    12    7    8 ar
    13    8    9 ar
    14    8   17 1
    15    9   10 ar
    16    9   30 1
    17   10   11 ar
    18   10   12 1
    19   12   16 1
    20   12   13 1
    21   13   14 2
    22   13   31 1
    23   14   15 1
    24   14   32 1
    25   15   16 2
    26   15   33 1
    27   17   18 am
    28   17   34 1
    29   18   19 2
    30   18   20 1
    31   20   21 1
    32   20   35 1
    33   20   36 1
    34   21   26 1
    35   21   22 1
    36   22   23 1
    37   22   37 1
    38   22   38 1
    39   23   24 1
    40   23   39 1
    41   23   40 1
    42   24   25 1
    43   25   26 1
    44   25   41 1
    45   25   42 1
    46   26   43 1
    47   26   44 1
