@<TRIPOS>MOLECULE
CHEMBL420307
   46    49     0     0     0
SMALL
USER_CHARGES

@<TRIPOS>ATOM
      1 C1          0.2240    1.4449   -0.0034 C.3       1 <0>         0.0728
      2 N1          0.1172   -0.0162   -0.0070 N.am      1 <0>        -0.6064
      3 C2          0.2481   -0.7633    1.2463 C.3       1 <0>         0.1209
      4 C3         -1.1296   -0.9199    1.8931 C.3       1 <0>        -0.0950
      5 C4         -0.9949   -1.6884    3.1823 C.ar      1 <0>        -0.0841
      6 C5         -1.0901   -3.0675    3.1781 C.ar      1 <0>        -0.1126
      7 C6         -0.9665   -3.7725    4.3607 C.ar      1 <0>        -0.1177
      8 C7         -0.7473   -3.0985    5.5475 C.ar      1 <0>        -0.1221
      9 C8         -0.6512   -1.7195    5.5516 C.ar      1 <0>        -0.1191
     10 C9         -0.7705   -1.0148    4.3684 C.ar      1 <0>        -0.1167
     11 C10        -0.1016   -0.6730   -1.1634 C.2       1 <0>         0.5660
     12 O1         -0.2805   -1.8753   -1.1550 O.2       1 <0>        -0.5119
     13 C11        -0.1240    0.0689   -2.4423 C.2       1 <0>         0.0019
     14 C12        -1.3520    0.4151   -3.0445 C.2       1 <0>        -0.2363
     15 C13        -1.3633    1.0981   -4.2208 C.2       1 <0>         0.4598
     16 N2         -0.1972    1.4556   -4.8309 N.pl3     1 <0>        -0.3172
     17 C14         1.0123    1.1371   -4.2764 C.2       1 <0>         0.3356
     18 C15         1.0620    0.4372   -3.0601 C.2       1 <0>        -0.1385
     19 N3          1.9599    1.6067   -5.0806 N.2       1 <0>        -0.5206
     20 C16         1.3992    2.2131   -6.1277 C.2       1 <0>         0.3446
     21 N4          0.0828    2.1465   -6.0193 N.2       1 <0>        -0.3236
     22 C17         2.1338    2.8585   -7.2356 C.2       1 <0>         0.0678
     23 C18         3.4855    2.9290   -7.3622 C.2       1 <0>        -0.1277
     24 C19         3.7456    3.6265   -8.5582 C.2       1 <0>        -0.1561
     25 C20         2.5510    3.9445   -9.0978 C.2       1 <0>        -0.0093
     26 O2          1.5800    3.4742   -8.2986 O.3       1 <0>        -0.1443
     27 Br1         2.2876    4.8895  -10.7144 Br        1 <0>         0.0662
     28 N5         -2.5728    1.4338   -4.8058 N.pl3     1 <0>        -0.8429
     29 H1          1.2725    1.7327   -0.0804 H         1 <0>         0.0651
     30 H2         -0.3276    1.8516   -0.8510 H         1 <0>         0.0745
     31 H3         -0.1934    1.8374    0.9238 H         1 <0>         0.0775
     32 H4          0.6667   -1.7484    1.0400 H         1 <0>         0.0893
     33 H5          0.9085   -0.2227    1.9243 H         1 <0>         0.0848
     34 H6         -1.5482    0.0652    2.0993 H         1 <0>         0.0745
     35 H7         -1.7899   -1.4606    1.2151 H         1 <0>         0.0788
     36 H8         -1.2613   -3.5941    2.2509 H         1 <0>         0.1236
     37 H9         -1.0416   -4.8499    4.3575 H         1 <0>         0.1225
     38 H10        -0.6515   -3.6492    6.4716 H         1 <0>         0.1214
     39 H11        -0.4803   -1.1928    6.4789 H         1 <0>         0.1220
     40 H12        -0.6917    0.0624    4.3710 H         1 <0>         0.1209
     41 H13        -2.2826    0.1377   -2.5719 H         1 <0>         0.1634
     42 H14         2.0123    0.1854   -2.6129 H         1 <0>         0.1631
     43 H15         4.2184    2.5279   -6.6778 H         1 <0>         0.1736
     44 H16         4.7176    3.8620   -8.9659 H         1 <0>         0.1714
     45 H17        -3.4055    1.1820   -4.3767 H         1 <0>         0.4237
     46 H18        -2.5873    1.9208   -5.6445 H         1 <0>         0.4161
@<TRIPOS>BOND
     1    1    2 1
     2    1   29 1
     3    1   30 1
     4    1   31 1
     5    2    3 1
     6    2   11 am
     7    3    4 1
     8    3   32 1
     9    3   33 1
    10    4    5 1
    11    4   34 1
    12    4   35 1
    13    5   10 ar
    14    5    6 ar
    15    6    7 ar
    16    6   36 1
    17    7    8 ar
    18    7   37 1
    19    8    9 ar
    20    8   38 1
    21    9   10 ar
    22    9   39 1
    23   10   40 1
    24   11   12 2
    25   11   13 1
    26   13   18 2
    27   13   14 1
    28   14   15 2
    29   14   41 1
    30   15   16 1
    31   15   28 1
    32   16   21 1
    33   16   17 1
    34   17   18 1
    35   17   19 2
    36   18   42 1
    37   19   20 1
    38   20   21 2
    39   20   22 1
    40   22   26 1
    41   22   23 2
    42   23   24 1
    43   23   43 1
    44   24   25 2
    45   24   44 1
    46   25   26 1
    47   25   27 1
    48   28   45 1
    49   28   46 1
