@<TRIPOS>MOLECULE
CHEMBL486140
   46    48     0     0     0
SMALL
USER_CHARGES

@<TRIPOS>ATOM
      1 C1          1.4947   -3.3957    1.7929 C.3       1 <0>        -0.1398
      2 C2          0.5994   -2.2230    1.3879 C.3       1 <0>        -0.1409
      3 C3         -0.7999   -2.7228    1.1364 C.2       1 <0>         0.5019
      4 O1         -1.0558   -3.9008    1.2681 O.2       1 <0>        -0.4610
      5 N1         -1.7669   -1.8605    0.7651 N.am      1 <0>        -0.6559
      6 C4         -3.0272   -2.3361    0.4189 C.ar      1 <0>         0.4446
      7 C5         -4.0723   -1.4492    0.1687 C.ar      1 <0>        -0.2737
      8 C6         -5.3168   -1.9734   -0.1752 C.ar      1 <0>         0.2736
      9 N2         -5.4627   -3.2959   -0.2523 N.ar      1 <0>        -0.5261
     10 C7         -4.4463   -4.1044   -0.0074 C.ar      1 <0>         0.6042
     11 N3         -3.2495   -3.6423    0.3168 N.ar      1 <0>        -0.5323
     12 N4         -4.6392   -5.4830   -0.0985 N.pl3     1 <0>        -0.3202
     13 C8         -3.6761   -6.4356    0.0133 C.2       1 <0>         0.1203
     14 C9         -4.2732   -7.6400   -0.1338 C.2       1 <0>        -0.2627
     15 C10        -5.6404   -7.4219   -0.3416 C.2       1 <0>         0.0931
     16 N5         -5.8610   -6.1331   -0.3155 N.2       1 <0>        -0.2612
     17 C11        -6.6817   -8.4905   -0.5534 C.3       1 <0>        -0.0743
     18 C12        -2.2088   -6.1935    0.2570 C.3       1 <0>        -0.0782
     19 C13        -6.4626   -1.0725   -0.4511 C.ar      1 <0>        -0.0731
     20 C14        -7.7359   -1.5966   -0.6881 C.ar      1 <0>        -0.0568
     21 C15        -8.7750   -0.7106   -0.9415 C.ar      1 <0>         0.0754
     22 C16        -8.5146    0.6530   -0.9503 C.ar      1 <0>         0.0353
     23 N6         -7.3000    1.1130   -0.7229 N.ar      1 <0>        -0.4473
     24 C17        -6.2867    0.3096   -0.4722 C.ar      1 <0>         0.0951
     25 O2        -10.0310   -1.1728   -1.1782 O.3       1 <0>        -0.3066
     26 C18       -11.0445   -0.1974   -1.4304 C.3       1 <0>         0.0217
     27 H1          2.5068   -3.0342    1.9748 H         1 <0>         0.0659
     28 H2          1.1040   -3.8544    2.7012 H         1 <0>         0.0638
     29 H3          1.5113   -4.1340    0.9912 H         1 <0>         0.0643
     30 H4          0.5829   -1.4847    2.1896 H         1 <0>         0.0985
     31 H5          0.9901   -1.7643    0.4796 H         1 <0>         0.0992
     32 H6         -1.5839   -0.9083    0.7393 H         1 <0>         0.4255
     33 H7         -3.9217   -0.3821    0.2399 H         1 <0>         0.1596
     34 H8         -3.7818   -8.6010   -0.0978 H         1 <0>         0.1591
     35 H9         -7.0939   -8.7921    0.4095 H         1 <0>         0.0821
     36 H10        -7.4802   -8.0999   -1.1841 H         1 <0>         0.0768
     37 H11        -6.2240   -9.3526   -1.0388 H         1 <0>         0.0825
     38 H12        -2.0410   -6.0182    1.3196 H         1 <0>         0.0894
     39 H13        -1.6387   -7.0661   -0.0617 H         1 <0>         0.0722
     40 H14        -1.8853   -5.3210   -0.3107 H         1 <0>         0.0900
     41 H15        -7.9075   -2.6628   -0.6750 H         1 <0>         0.1593
     42 H16        -9.3184    1.3471   -1.1467 H         1 <0>         0.1645
     43 H17        -5.3079    0.7264   -0.2860 H         1 <0>         0.1648
     44 H18       -11.1336    0.4649   -0.5693 H         1 <0>         0.0601
     45 H19       -10.7762    0.3859   -2.3112 H         1 <0>         0.0601
     46 H20       -11.9967   -0.6990   -1.6030 H         1 <0>         0.1071
@<TRIPOS>BOND
     1    1    2 1
     2    1   27 1
     3    1   28 1
     4    1   29 1
     5    2    3 1
     6    2   30 1
     7    2   31 1
     8    3    4 2
     9    3    5 am
    10    5    6 1
    11    5   32 1
    12    6   11 ar
    13    6    7 ar
    14    7    8 ar
    15    7   33 1
    16    8    9 ar
    17    8   19 1
    18    9   10 ar
    19   10   11 ar
    20   10   12 1
    21   12   16 1
    22   12   13 1
    23   13   14 2
    24   13   18 1
    25   14   15 1
    26   14   34 1
    27   15   16 2
    28   15   17 1
    29   17   35 1
    30   17   36 1
    31   17   37 1
    32   18   38 1
    33   18   39 1
    34   18   40 1
    35   19   24 ar
    36   19   20 ar
    37   20   21 ar
    38   20   41 1
    39   21   22 ar
    40   21   25 1
    41   22   23 ar
    42   22   42 1
    43   23   24 ar
    44   24   43 1
    45   25   26 1
    46   26   44 1
    47   26   45 1
    48   26   46 1
