@<TRIPOS>MOLECULE
CHEMBL195543
   38    42     0     0     0
SMALL
USER_CHARGES

@<TRIPOS>ATOM
      1 C1         -0.0162    1.3448    0.0094 C.2       1 <0>        -0.2230
      2 C2          1.3230    1.7760   -0.0010 C.2       1 <0>        -0.1408
      3 C3          2.0960    0.6543   -0.0144 C.2       1 <0>         0.0115
      4 O1          1.2786   -0.4173   -0.0124 O.3       1 <0>        -0.1485
      5 C4          0.0021   -0.0041    0.0020 C.2       1 <0>        -0.0122
      6 C5          3.5685    0.6188   -0.0294 C.ar      1 <0>         0.3600
      7 C6          4.2724   -0.3973    0.6484 C.ar      1 <0>        -0.0861
      8 C7          5.6778   -0.3798    0.5989 C.ar      1 <0>         0.3343
      9 N1          6.2899    0.5846   -0.0786 N.ar      1 <0>        -0.5535
     10 C8          5.5915    1.5208   -0.7017 C.ar      1 <0>         0.5901
     11 N2          4.2666    1.5439   -0.6890 N.ar      1 <0>        -0.5473
     12 N3          6.2701    2.5086   -1.3970 N.pl3     1 <0>        -0.8170
     13 N4          6.0951   -1.4634    1.3306 N.pl3     1 <0>        -0.4755
     14 C9          4.9797   -2.0966    1.7945 C.2       1 <0>         0.2610
     15 N5          3.9124   -1.4689    1.3926 N.2       1 <0>        -0.4499
     16 C10         7.4833   -1.8661    1.5691 C.3       1 <0>         0.1597
     17 C11         8.0304   -1.1076    2.7508 C.ar      1 <0>        -0.1083
     18 C12         8.0963   -1.7160    3.9908 C.ar      1 <0>        -0.0682
     19 C13         8.5991   -1.0213    5.0783 C.ar      1 <0>         0.0332
     20 C14         9.0380    0.2913    4.9199 C.ar      1 <0>         0.0592
     21 C15         8.9702    0.8951    3.6752 C.ar      1 <0>        -0.1009
     22 C16         8.4709    0.1938    2.5918 C.ar      1 <0>        -0.0182
     23 Cl1         8.3927    0.9505    1.0314 Cl        1 <0>         0.0031
     24 O2          9.4824    0.7512    6.1258 O.3       1 <0>        -0.3024
     25 C17         8.9338   -0.1490    7.1065 C.3       1 <0>         0.2124
     26 O3          8.7689   -1.3833    6.3837 O.3       1 <0>        -0.3026
     27 H1         -0.8933    1.9747    0.0252 H         1 <0>         0.1549
     28 H2          1.6709    2.7985    0.0008 H         1 <0>         0.1553
     29 H3         -0.8670   -0.6453    0.0072 H         1 <0>         0.2096
     30 H4          7.2398    2.5059   -1.4210 H         1 <0>         0.4126
     31 H5          5.7755    3.2029   -1.8598 H         1 <0>         0.4185
     32 H6          4.9817   -2.9878    2.4046 H         1 <0>         0.2246
     33 H7          7.5211   -2.9358    1.7749 H         1 <0>         0.1161
     34 H8          8.0827   -1.6445    0.6861 H         1 <0>         0.1135
     35 H9          7.7551   -2.7336    4.1114 H         1 <0>         0.1488
     36 H10         9.3099    1.9126    3.5496 H         1 <0>         0.1476
     37 H11         9.6283   -0.2809    7.9362 H         1 <0>         0.1382
     38 H12         7.9716    0.2161    7.4656 H         1 <0>         0.0898
@<TRIPOS>BOND
     1    1    5 2
     2    1    2 1
     3    1   27 1
     4    2    3 2
     5    2   28 1
     6    3    4 1
     7    3    6 1
     8    4    5 1
     9    5   29 1
    10    6   11 ar
    11    6    7 ar
    12    7   15 1
    13    7    8 ar
    14    8    9 ar
    15    8   13 1
    16    9   10 ar
    17   10   11 ar
    18   10   12 1
    19   12   30 1
    20   12   31 1
    21   13   14 1
    22   13   16 1
    23   14   15 2
    24   14   32 1
    25   16   17 1
    26   16   33 1
    27   16   34 1
    28   17   22 ar
    29   17   18 ar
    30   18   19 ar
    31   18   35 1
    32   19   26 1
    33   19   20 ar
    34   20   21 ar
    35   20   24 1
    36   21   22 ar
    37   21   36 1
    38   22   23 1
    39   24   25 1
    40   25   26 1
    41   25   37 1
    42   25   38 1
