@<TRIPOS>MOLECULE
CHEMBL604019
   59    62     0     0     0
SMALL
USER_CHARGES

@<TRIPOS>ATOM
      1 C1         -0.0187    1.5258    0.0104 C.3       1 <0>        -0.1685
      2 C2          0.0021   -0.0041    0.0020 C.3       1 <0>         0.1130
      3 N1          0.6878   -0.4765   -1.2033 N.am      1 <0>        -0.7255
      4 C3          0.8268   -1.7986   -1.4250 C.2       1 <0>         0.5148
      5 O1          0.3843   -2.5972   -0.6267 O.2       1 <0>        -0.5026
      6 C4          1.5322   -2.2846   -2.6649 C.3       1 <0>         0.0317
      7 H1          2.5323   -1.8560   -2.7290 H         1 <0>         0.1238
      8 C5          0.7085   -1.9402   -3.9319 C.3       1 <0>         0.0512
      9 H2         -0.3595   -2.0480   -3.7427 H         1 <0>         0.0969
     10 C6          1.2015   -3.0074   -4.9392 C.3       1 <0>         0.0825
     11 H3          0.3680   -3.3897   -5.5285 H         1 <0>         0.0900
     12 C7          1.7901   -4.1212   -4.0517 C.3       1 <0>         0.3109
     13 O2          1.5952   -3.7270   -2.6817 O.3       1 <0>        -0.3250
     14 N2          1.0956   -5.3847   -4.3118 N.pl3     1 <0>        -0.4685
     15 C8          0.0371   -5.8826   -3.6116 C.2       1 <0>         0.2876
     16 N3         -0.3305   -7.0259   -4.1137 N.2       1 <0>        -0.4560
     17 C9          0.4656   -7.3344   -5.1647 C.ar      1 <0>        -0.0814
     18 C10         1.3874   -6.2818   -5.3089 C.ar      1 <0>         0.3057
     19 N4          2.2866   -6.3378   -6.2830 N.ar      1 <0>        -0.5166
     20 C11         2.3169   -7.3703   -7.1145 C.ar      1 <0>         0.4525
     21 N5          1.4623   -8.3848   -7.0165 N.ar      1 <0>        -0.5727
     22 C12         0.5371   -8.4123   -6.0657 C.ar      1 <0>         0.5196
     23 N6         -0.3489   -9.4714   -5.9722 N.pl3     1 <0>        -0.8068
     24 C13         3.3026   -7.3937   -8.1530 C.1       1 <0>         0.0316
     25 C14         4.1107   -7.4129   -9.0044 C.1       1 <0>        -0.2124
     26 C15         5.1240   -7.4370  -10.0719 C.3       1 <0>         0.1363
     27 N7          4.9711   -8.6643  -10.8645 N.4       1 <0>        -0.3857
     28 C16         5.2575   -9.8297  -10.0194 C.3       1 <0>        -0.0105
     29 C17         5.0212  -11.1137  -10.8175 C.3       1 <0>        -0.1446
     30 C18         5.9456  -11.1269  -12.0383 C.3       1 <0>        -0.1396
     31 C19         5.6900   -9.8691  -12.8735 C.3       1 <0>        -0.1458
     32 C20         5.9015   -8.6312  -11.9993 C.3       1 <0>        -0.0069
     33 O3          2.2079   -2.4612   -5.7941 O.3       1 <0>        -0.5338
     34 O4          1.0116   -0.6227   -4.3947 O.3       1 <0>        -0.5364
     35 H4          1.0039    1.9031    0.0027 H         1 <0>         0.0649
     36 H5         -0.5459    1.8868   -0.8726 H         1 <0>         0.0639
     37 H6         -0.5289    1.8773    0.9072 H         1 <0>         0.0810
     38 H7          0.5293   -0.3651    0.8851 H         1 <0>         0.0744
     39 H8         -1.0205   -0.3814    0.0098 H         1 <0>         0.0739
     40 H9          1.0417    0.1622   -1.8418 H         1 <0>         0.3979
     41 H10         2.8552   -4.2328   -4.2545 H         1 <0>         0.1334
     42 H11        -0.4277   -5.3998   -2.7647 H         1 <0>         0.2334
     43 H12        -1.0284   -9.4756   -5.2800 H         1 <0>         0.4265
     44 H13        -0.2903  -10.2095   -6.5988 H         1 <0>         0.4140
     45 H14         4.9922   -6.5687  -10.7175 H         1 <0>         0.1562
     46 H15         6.1195   -7.4124   -9.6286 H         1 <0>         0.1539
     47 H16         6.2960   -9.7929   -9.6904 H         1 <0>         0.1307
     48 H17         4.6010   -9.8171   -9.1494 H         1 <0>         0.1301
     49 H18         5.2361  -11.9778  -10.1888 H         1 <0>         0.1119
     50 H19         3.9828  -11.1516  -11.1468 H         1 <0>         0.0879
     51 H20         6.9845  -11.1406  -11.7087 H         1 <0>         0.0823
     52 H21         5.7414  -12.0121  -12.6406 H         1 <0>         0.0940
     53 H22         6.3830   -9.8435  -13.7145 H         1 <0>         0.1136
     54 H23         4.6655   -9.8812  -13.2455 H         1 <0>         0.0882
     55 H24         5.7205   -7.7338  -12.5909 H         1 <0>         0.1338
     56 H25         6.9263   -8.6199  -11.6281 H         1 <0>         0.1321
     57 H26         1.9048   -1.7181   -6.3335 H         1 <0>         0.3993
     58 H27         0.8031    0.0753   -3.7587 H         1 <0>         0.3877
     59 H28         4.0246   -8.7254  -11.2087 H         1 <0>         0.4266
@<TRIPOS>BOND
     1    1    2 1
     2    1   35 1
     3    1   36 1
     4    1   37 1
     5    2    3 1
     6    2   38 1
     7    2   39 1
     8    3    4 am
     9    3   40 1
    10    4    5 2
    11    4    6 1
    12    6    7 1
    13    6   13 1
    14    6    8 1
    15    8    9 1
    16    8   10 1
    17    8   34 1
    18   10   11 1
    19   10   12 1
    20   10   33 1
    21   12   13 1
    22   12   14 1
    23   12   41 1
    24   14   18 1
    25   14   15 1
    26   15   16 2
    27   15   42 1
    28   16   17 1
    29   17   22 ar
    30   17   18 ar
    31   18   19 ar
    32   19   20 ar
    33   20   21 ar
    34   20   24 1
    35   21   22 ar
    36   22   23 1
    37   23   43 1
    38   23   44 1
    39   24   25 3
    40   25   26 1
    41   26   27 1
    42   26   45 1
    43   26   46 1
    44   27   32 1
    45   27   28 1
    46   27   59 1
    47   28   29 1
    48   28   47 1
    49   28   48 1
    50   29   30 1
    51   29   49 1
    52   29   50 1
    53   30   31 1
    54   30   51 1
    55   30   52 1
    56   31   32 1
    57   31   53 1
    58   31   54 1
    59   32   55 1
    60   32   56 1
    61   33   57 1
    62   34   58 1
