@<TRIPOS>MOLECULE
CHEMBL506101
   31    34     0     0     0
SMALL
USER_CHARGES

@<TRIPOS>ATOM
      1 C1         -0.0162    1.3451    0.0094 C.2       1 <0>        -0.2247
      2 C2          1.3225    1.7763   -0.0010 C.2       1 <0>        -0.1231
      3 C3          2.0959    0.6543   -0.0144 C.2       1 <0>        -0.0075
      4 O1          1.2782   -0.4173   -0.0124 O.3       1 <0>        -0.1489
      5 C4          0.0021   -0.0041    0.0020 C.2       1 <0>         0.0011
      6 C5          3.5677    0.6188   -0.0291 C.ar      1 <0>         0.4086
      7 C6          4.2734   -0.4010    0.6510 C.ar      1 <0>        -0.1551
      8 C7          5.6790   -0.3802    0.5989 C.ar      1 <0>         0.3623
      9 N1          6.2899    0.5856   -0.0804 N.ar      1 <0>        -0.5800
     10 C8          5.5905    1.5202   -0.7032 C.ar      1 <0>         0.6211
     11 N2          4.2647    1.5429   -0.6876 N.ar      1 <0>        -0.5505
     12 N3          6.2669    2.5076   -1.3991 N.pl3     1 <0>        -0.8035
     13 N4          6.0998   -1.4584    1.3276 N.pl3     1 <0>        -0.3798
     14 N5          4.9441   -2.0995    1.7988 N.2       1 <0>         0.0008
     15 N6          3.9043   -1.4608    1.3883 N.2       1 <0>        -0.1684
     16 C9          7.4865   -1.8648    1.5687 C.3       1 <0>         0.1933
     17 C10         7.9940   -1.2001    2.8224 C.2       1 <0>        -0.1613
     18 C11         8.6089    0.0363    2.7612 C.2       1 <0>        -0.1424
     19 C12         9.0541    0.6065    3.9075 C.2       1 <0>        -0.1734
     20 S1          8.6051   -0.6173    5.1273 S.3       1 <0>         0.0542
     21 C13         7.8494   -1.8034    4.0276 C.2       1 <0>        -0.1394
     22 H1         -0.8933    1.9750    0.0252 H         1 <0>         0.1585
     23 H2          1.6703    2.7988    0.0008 H         1 <0>         0.1592
     24 H3         -0.8670   -0.6452    0.0072 H         1 <0>         0.2133
     25 H4          7.2366    2.5058   -1.4240 H         1 <0>         0.4204
     26 H5          5.7711    3.2012   -1.8618 H         1 <0>         0.4220
     27 H6          7.5325   -2.9473    1.6872 H         1 <0>         0.1143
     28 H7          8.1052   -1.5653    0.7227 H         1 <0>         0.1109
     29 H8          8.7330    0.5404    1.8142 H         1 <0>         0.1388
     30 H9          9.5516    1.5549    4.0467 H         1 <0>         0.1878
     31 H10         7.3958   -2.7552    4.2617 H         1 <0>         0.1915
@<TRIPOS>BOND
     1    1    5 2
     2    1    2 1
     3    1   22 1
     4    2    3 2
     5    2   23 1
     6    3    4 1
     7    3    6 1
     8    4    5 1
     9    5   24 1
    10    6   11 ar
    11    6    7 ar
    12    7   15 1
    13    7    8 ar
    14    8    9 ar
    15    8   13 1
    16    9   10 ar
    17   10   11 ar
    18   10   12 1
    19   12   25 1
    20   12   26 1
    21   13   14 1
    22   13   16 1
    23   14   15 2
    24   16   17 1
    25   16   27 1
    26   16   28 1
    27   17   21 2
    28   17   18 1
    29   18   19 2
    30   18   29 1
    31   19   20 1
    32   19   30 1
    33   20   21 1
    34   21   31 1
