@<TRIPOS>MOLECULE
CHEMBL1086846
   29    32     0     0     0
SMALL
USER_CHARGES

@<TRIPOS>ATOM
      1 C1         -0.0167    1.3824    0.0096 C.ar      1 <0>        -0.0947
      2 C2          1.1645    2.0973    0.0022 C.ar      1 <0>        -0.1039
      3 C3          2.3817    1.4340   -0.0129 C.ar      1 <0>        -0.0507
      4 C4          2.4138    0.0464   -0.0207 C.ar      1 <0>        -0.1451
      5 C5          1.2127   -0.6822   -0.0131 C.ar      1 <0>        -0.0402
      6 C6          0.0021   -0.0041    0.0020 C.ar      1 <0>        -0.0674
      7 C7          1.5400   -2.1306   -0.0231 C.ar      1 <0>         0.3107
      8 C8          2.9423   -2.2719   -0.0368 C.ar      1 <0>        -0.3514
      9 C9          3.4879   -3.5692   -0.0481 C.ar      1 <0>         0.3878
     10 N1          2.6517   -4.6122   -0.0454 N.ar      1 <0>        -0.5674
     11 C10         1.3418   -4.4312   -0.0324 C.ar      1 <0>         0.6056
     12 N2          0.7890   -3.2215   -0.0210 N.ar      1 <0>        -0.5629
     13 N3          0.5184   -5.5378   -0.0306 N.pl3     1 <0>        -0.8036
     14 C11         4.9452   -3.7728   -0.0631 C.2       1 <0>        -0.2075
     15 C12         5.6927   -4.7713    0.5368 C.2       1 <0>        -0.0821
     16 C13         7.0539   -4.6977    0.3435 C.2       1 <0>        -0.1876
     17 C14         7.5589   -3.6837   -0.3987 C.2       1 <0>        -0.2475
     18 S1          6.2071   -2.8021   -0.8651 S.3       1 <0>         0.2861
     19 C15         3.5354   -0.9269   -0.0358 C.2       1 <0>         0.4619
     20 O1          4.7213   -0.6612   -0.0455 O.2       1 <0>        -0.4091
     21 H1         -0.9610    1.9063    0.0260 H         1 <0>         0.1399
     22 H2          1.1400    3.1770    0.0079 H         1 <0>         0.1404
     23 H3          3.3038    1.9962   -0.0191 H         1 <0>         0.1410
     24 H4         -0.9259   -0.5565    0.0082 H         1 <0>         0.1397
     25 H5          0.9027   -6.4284   -0.0387 H         1 <0>         0.4211
     26 H6         -0.4451   -5.4254   -0.0211 H         1 <0>         0.4201
     27 H7          5.2372   -5.5581    1.1198 H         1 <0>         0.1441
     28 H8          7.7096   -5.4378    0.7779 H         1 <0>         0.1350
     29 H9          8.5935   -3.4891   -0.6397 H         1 <0>         0.1879
@<TRIPOS>BOND
     1    1    6 ar
     2    1    2 ar
     3    1   21 1
     4    2    3 ar
     5    2   22 1
     6    3    4 ar
     7    3   23 1
     8    4   19 1
     9    4    5 ar
    10    5    6 ar
    11    5    7 1
    12    6   24 1
    13    7   12 ar
    14    7    8 ar
    15    8    9 ar
    16    8   19 1
    17    9   10 ar
    18    9   14 1
    19   10   11 ar
    20   11   12 ar
    21   11   13 1
    22   13   25 1
    23   13   26 1
    24   14   18 1
    25   14   15 2
    26   15   16 1
    27   15   27 1
    28   16   17 2
    29   16   28 1
    30   17   18 1
    31   17   29 1
    32   19   20 2
