@<TRIPOS>MOLECULE
CHEMBL506250
   28    30     0     0     0
SMALL
USER_CHARGES

@<TRIPOS>ATOM
      1 C1         -0.0162    1.3446    0.0094 C.2       1 <0>        -0.2156
      2 C2          1.3234    1.7758   -0.0010 C.2       1 <0>        -0.1579
      3 C3          2.0961    0.6543   -0.0144 C.2       1 <0>        -0.0099
      4 O1          1.2788   -0.4172   -0.0124 O.3       1 <0>        -0.1619
      5 C4          0.0021   -0.0041    0.0020 C.2       1 <0>        -0.0171
      6 C5          3.5695    0.6187   -0.0287 C.ar      1 <0>         0.1290
      7 C6          4.2963    1.3804   -0.9453 C.ar      1 <0>        -0.1931
      8 C7          5.6882    1.3201   -0.9277 C.ar      1 <0>         0.2959
      9 N1          6.3327    0.5497   -0.0529 N.ar      1 <0>        -0.5268
     10 C8          5.6915   -0.1898    0.8346 C.ar      1 <0>         0.4717
     11 C9          4.2866   -0.1844    0.8908 C.ar      1 <0>        -0.1411
     12 C10         3.5930   -0.9817    1.8572 C.1       1 <0>         0.2554
     13 N2          3.0428   -1.6142    2.6238 N.1       1 <0>        -0.4024
     14 N3          6.4099   -0.9729    1.7215 N.pl3     1 <0>        -0.8318
     15 C11         6.4609    2.1223   -1.8942 C.2       1 <0>        -0.0033
     16 C12         7.8181    2.1597   -1.9978 C.2       1 <0>        -0.1301
     17 C13         8.1200    3.0491   -3.0460 C.2       1 <0>        -0.2232
     18 C14         6.9460    3.5070   -3.5268 C.2       1 <0>        -0.0081
     19 O2          5.9467    2.9415   -2.8324 O.3       1 <0>        -0.1647
     20 H1         -0.8933    1.9746    0.0252 H         1 <0>         0.1566
     21 H2          1.6714    2.7982    0.0011 H         1 <0>         0.1578
     22 H3         -0.8669   -0.6453    0.0074 H         1 <0>         0.2091
     23 H4          3.7857    2.0088   -1.6600 H         1 <0>         0.1549
     24 H5          7.3794   -0.9770    1.6895 H         1 <0>         0.4150
     25 H6          5.9439   -1.5176    2.3750 H         1 <0>         0.4134
     26 H7          8.5259    1.6128   -1.3927 H         1 <0>         0.1602
     27 H8          9.1057    3.3149   -3.3985 H         1 <0>         0.1562
     28 H9          6.8295    4.2096   -4.3387 H         1 <0>         0.2117
@<TRIPOS>BOND
     1    1    5 2
     2    1    2 1
     3    1   20 1
     4    2    3 2
     5    2   21 1
     6    3    4 1
     7    3    6 1
     8    4    5 1
     9    5   22 1
    10    6   11 ar
    11    6    7 ar
    12    7    8 ar
    13    7   23 1
    14    8    9 ar
    15    8   15 1
    16    9   10 ar
    17   10   11 ar
    18   10   14 1
    19   11   12 1
    20   12   13 3
    21   14   24 1
    22   14   25 1
    23   15   19 1
    24   15   16 2
    25   16   17 1
    26   16   26 1
    27   17   18 2
    28   17   27 1
    29   18   19 1
    30   18   28 1
