@<TRIPOS>MOLECULE
CHEMBL184309
   57    61     0     0     0
SMALL
USER_CHARGES

@<TRIPOS>ATOM
      1 C1         -0.0178    1.4608    0.0101 C.3       1 <0>         0.0709
      2 N1          0.0021   -0.0041    0.0020 N.pl3     1 <0>        -0.5765
      3 C2          0.0241   -0.7433    1.2666 C.3       1 <0>         0.1080
      4 C3         -1.4105   -1.0203    1.7205 C.3       1 <0>        -0.0331
      5 N2         -1.3884   -1.7615    2.9886 N.4       1 <0>        -0.3745
      6 C4         -0.7772   -3.0791    2.7727 C.3       1 <0>        -0.0302
      7 C5         -0.6491   -3.8076    4.1146 C.3       1 <0>         0.1203
      8 N3         -1.9750   -3.8502    4.7506 N.pl3     1 <0>        -0.6719
      9 C6         -2.7316   -2.5934    4.8607 C.3       1 <0>         0.1202
     10 C7         -2.7614   -1.9222    3.4836 C.3       1 <0>        -0.0228
     11 C8         -2.5018   -5.0526    5.2368 C.ar      1 <0>         0.1001
     12 C9         -2.2621   -5.4363    6.5490 C.ar      1 <0>        -0.0568
     13 C10        -2.7829   -6.6234    7.0272 C.ar      1 <0>        -0.1545
     14 C11        -3.5434   -7.4312    6.1989 C.ar      1 <0>         0.1465
     15 C12        -3.7843   -7.0521    4.8892 C.ar      1 <0>        -0.1869
     16 C13        -3.2709   -5.8617    4.4078 C.ar      1 <0>         0.1286
     17 F1         -3.5111   -5.4883    3.1318 F         1 <0>        -0.1284
     18 F2         -4.0508   -8.5916    6.6693 F         1 <0>        -0.1210
     19 C14         0.0000   -0.6825   -1.1879 C.2       1 <0>         0.6678
     20 N4         -0.0151    0.0261   -2.3650 N.pl3     1 <0>        -0.6561
     21 C15         0.4616   -0.5878   -3.5230 C.2       1 <0>         0.6271
     22 N5          0.2963   -1.9631   -3.5370 N.pl3     1 <0>        -0.4283
     23 C16         0.0831   -2.6522   -2.3609 C.2       1 <0>         0.5014
     24 N6          0.0181   -2.0050   -1.1782 N.2       1 <0>        -0.5466
     25 N7         -0.0240   -3.9201   -2.6649 N.2       1 <0>        -0.4893
     26 C17         0.1046   -4.0784   -3.9948 C.2       1 <0>         0.3408
     27 N8          0.2999   -2.8981   -4.5587 N.2       1 <0>        -0.2739
     28 C18         0.0386   -5.3684   -4.7126 C.2       1 <0>         0.0313
     29 C19        -0.1669   -6.5871   -4.1460 C.2       1 <0>        -0.1246
     30 C20        -0.1549   -7.5290   -5.1938 C.2       1 <0>        -0.2200
     31 C21         0.0551   -6.8460   -6.3363 C.2       1 <0>        -0.0003
     32 O1          0.1657   -5.5404   -6.0426 O.3       1 <0>        -0.1597
     33 N9          1.0114    0.0720   -4.5024 N.2       1 <0>        -0.6656
     34 H1          1.0048    1.8381    0.0023 H         1 <0>         0.0854
     35 H2         -0.5450    1.8219   -0.8730 H         1 <0>         0.0805
     36 H3         -0.5280    1.8123    0.9069 H         1 <0>         0.0965
     37 H4          0.5496   -1.6879    1.1262 H         1 <0>         0.1213
     38 H5          0.5371   -0.1514    2.0246 H         1 <0>         0.1132
     39 H6         -1.9359   -0.0757    1.8610 H         1 <0>         0.1340
     40 H7         -1.9235   -1.6122    0.9626 H         1 <0>         0.1373
     41 H8         -1.4037   -3.6645    2.0997 H         1 <0>         0.1376
     42 H9          0.2115   -2.9532    2.3316 H         1 <0>         0.1419
     43 H10        -0.2905   -4.8232    3.9472 H         1 <0>         0.1179
     44 H11         0.0485   -3.2710    4.7576 H         1 <0>         0.0840
     45 H12        -3.7498   -2.8062    5.1865 H         1 <0>         0.1166
     46 H13        -2.2443   -1.9342    5.5790 H         1 <0>         0.0841
     47 H14        -3.2348   -0.9438    3.5663 H         1 <0>         0.1380
     48 H15        -3.3279   -2.5426    2.7891 H         1 <0>         0.1330
     49 H16        -1.6685   -4.8074    7.1959 H         1 <0>         0.1471
     50 H17        -2.5962   -6.9217    8.0482 H         1 <0>         0.1511
     51 H18        -4.3772   -7.6841    4.2446 H         1 <0>         0.1549
     52 H19        -0.3108   -6.7934   -3.0957 H         1 <0>         0.1616
     53 H20        -0.2884   -8.5966   -5.0992 H         1 <0>         0.1611
     54 H21         0.1191   -7.2766   -7.3247 H         1 <0>         0.2155
     55 H22         1.3279   -0.4006   -5.2881 H         1 <0>         0.3840
     56 H23        -0.3512    0.9357   -2.3902 H         1 <0>         0.4399
     57 H24        -0.8454   -1.2488    3.6671 H         1 <0>         0.4214
@<TRIPOS>BOND
     1    1    2 1
     2    1   34 1
     3    1   35 1
     4    1   36 1
     5    2    3 1
     6    2   19 1
     7    3    4 1
     8    3   37 1
     9    3   38 1
    10    4    5 1
    11    4   39 1
    12    4   40 1
    13    5   10 1
    14    5    6 1
    15    5   57 1
    16    6    7 1
    17    6   41 1
    18    6   42 1
    19    7    8 1
    20    7   43 1
    21    7   44 1
    22    8    9 1
    23    8   11 1
    24    9   10 1
    25    9   45 1
    26    9   46 1
    27   10   47 1
    28   10   48 1
    29   11   16 ar
    30   11   12 ar
    31   12   13 ar
    32   12   49 1
    33   13   14 ar
    34   13   50 1
    35   14   15 ar
    36   14   18 1
    37   15   16 ar
    38   15   51 1
    39   16   17 1
    40   19   24 2
    41   19   20 1
    42   20   21 1
    43   20   56 1
    44   21   22 1
    45   21   33 2
    46   22   27 1
    47   22   23 1
    48   23   24 1
    49   23   25 2
    50   25   26 1
    51   26   27 2
    52   26   28 1
    53   28   32 1
    54   28   29 2
    55   29   30 1
    56   29   52 1
    57   30   31 2
    58   30   53 1
    59   31   32 1
    60   31   54 1
    61   33   55 1
