@<TRIPOS>MOLECULE
CHEMBL17094
   37    40     0     0     0
SMALL
USER_CHARGES

@<TRIPOS>ATOM
      1 C1         -0.0187    1.5258    0.0104 C.3       1 <0>        -0.1529
      2 C2          0.0021   -0.0041    0.0020 C.3       1 <0>        -0.1200
      3 C3          0.7182   -0.4975   -1.2568 C.3       1 <0>        -0.1368
      4 C4          0.7390   -2.0273   -1.2652 C.3       1 <0>         0.1363
      5 N1          1.4247   -2.4998   -2.4705 N.pl3     1 <0>        -0.3537
      6 C5          0.8380   -2.7622   -3.6722 C.2       1 <0>         0.3694
      7 C6          1.8621   -3.1866   -4.5323 C.2       1 <0>        -0.2676
      8 C7          3.0614   -3.1640   -3.7980 C.2       1 <0>         0.1300
      9 N2          2.7969   -2.7537   -2.5879 N.2       1 <0>        -0.2635
     10 C8          1.5034   -3.5384   -5.9066 C.2       1 <0>         0.4067
     11 N3          2.1773   -3.9619   -6.9557 N.2       1 <0>        -0.5163
     12 C9          1.3417   -4.1335   -7.9879 C.2       1 <0>         0.3504
     13 N4          0.1159   -3.8206   -7.6119 N.2       1 <0>        -0.2999
     14 N5          0.1856   -3.4308   -6.2683 N.pl3     1 <0>        -0.3765
     15 C10        -0.7389   -3.0073   -5.3582 C.2       1 <0>         0.6913
     16 N6         -0.4209   -2.6916   -4.1268 N.2       1 <0>        -0.5612
     17 N7         -2.0541   -2.9086   -5.7480 N.pl3     1 <0>        -0.8024
     18 C11         1.7306   -4.5995   -9.3354 C.2       1 <0>         0.0425
     19 C12         0.8932   -4.7724  -10.3923 C.2       1 <0>        -0.1372
     20 C13         1.6842   -5.2243  -11.4672 C.2       1 <0>        -0.2200
     21 C14         2.9522   -5.3042  -11.0180 C.2       1 <0>        -0.0042
     22 O1          2.9773   -4.9212   -9.7313 O.3       1 <0>        -0.1522
     23 H1          1.0039    1.9031    0.0027 H         1 <0>         0.0553
     24 H2         -0.5459    1.8868   -0.8726 H         1 <0>         0.0543
     25 H3         -0.5289    1.8773    0.9072 H         1 <0>         0.0579
     26 H4          0.5293   -0.3651    0.8851 H         1 <0>         0.0672
     27 H5         -1.0205   -0.3814    0.0098 H         1 <0>         0.0663
     28 H6          0.1910   -0.1364   -2.1398 H         1 <0>         0.0692
     29 H7          1.7408   -0.1202   -1.2645 H         1 <0>         0.0735
     30 H8          1.2661   -2.3884   -0.3821 H         1 <0>         0.1019
     31 H9         -0.2836   -2.4046   -1.2575 H         1 <0>         0.0995
     32 H10         4.0368   -3.4361   -4.1734 H         1 <0>         0.2023
     33 H11        -2.3096   -3.1380   -6.6552 H         1 <0>         0.4263
     34 H12        -2.7262   -2.6095   -5.1158 H         1 <0>         0.4303
     35 H13        -0.1724   -4.5974  -10.4054 H         1 <0>         0.1599
     36 H14         1.3395   -5.4621  -12.4627 H         1 <0>         0.1594
     37 H15         3.8069   -5.6199  -11.5978 H         1 <0>         0.2142
@<TRIPOS>BOND
     1    1    2 1
     2    1   23 1
     3    1   24 1
     4    1   25 1
     5    2    3 1
     6    2   26 1
     7    2   27 1
     8    3    4 1
     9    3   28 1
    10    3   29 1
    11    4    5 1
    12    4   30 1
    13    4   31 1
    14    5    9 1
    15    5    6 1
    16    6   16 1
    17    6    7 2
    18    7    8 1
    19    7   10 1
    20    8    9 2
    21    8   32 1
    22   10   14 1
    23   10   11 2
    24   11   12 1
    25   12   13 2
    26   12   18 1
    27   13   14 1
    28   14   15 1
    29   15   16 2
    30   15   17 1
    31   17   33 1
    32   17   34 1
    33   18   22 1
    34   18   19 2
    35   19   20 1
    36   19   35 1
    37   20   21 2
    38   20   36 1
    39   21   22 1
    40   21   37 1
