@<TRIPOS>MOLECULE
CHEMBL369573
   32    35     0     0     0
SMALL
USER_CHARGES

@<TRIPOS>ATOM
      1 C1         -0.0167    1.3793    0.0096 C.ar      1 <0>        -0.0931
      2 C2          1.1685    2.0929    0.0021 C.ar      1 <0>        -0.1341
      3 C3          2.3774    1.4279   -0.0130 C.ar      1 <0>        -0.0662
      4 C4          2.4029    0.0333   -0.0207 C.ar      1 <0>        -0.0807
      5 C5          1.2046   -0.6805   -0.0131 C.ar      1 <0>        -0.0596
      6 C6          0.0021   -0.0041    0.0020 C.ar      1 <0>        -0.1271
      7 C7          3.6972   -0.6866   -0.0375 C.ar      1 <0>         0.3418
      8 C8          3.8485   -1.9053    0.6416 C.ar      1 <0>        -0.3483
      9 C9          5.0995   -2.5526    0.5963 C.ar      1 <0>         0.3068
     10 N1          6.0850   -1.9878   -0.0854 N.ar      1 <0>        -0.5629
     11 C10         5.9016   -0.8324   -0.7162 C.ar      1 <0>         0.6025
     12 N2          4.7422   -0.1938   -0.7026 N.ar      1 <0>        -0.5703
     13 N3          6.9560   -0.2811   -1.4137 N.pl3     1 <0>        -0.8043
     14 C11         5.0091   -3.8087    1.3828 C.ar      1 <0>        -0.0396
     15 C12         5.9398   -4.8012    1.6568 C.ar      1 <0>        -0.0681
     16 C13         5.5832   -5.8911    2.4363 C.ar      1 <0>        -0.0942
     17 C14         4.3040   -5.9981    2.9448 C.ar      1 <0>        -0.1042
     18 C15         3.3631   -5.0152    2.6796 C.ar      1 <0>        -0.0509
     19 C16         3.7079   -3.9189    1.9009 C.ar      1 <0>        -0.1469
     20 C17         2.9384   -2.7304    1.4536 C.2       1 <0>         0.4638
     21 O1          1.7764   -2.4848    1.7094 O.2       1 <0>        -0.4132
     22 H1         -0.9604    1.9042    0.0260 H         1 <0>         0.1266
     23 H2          1.1475    3.1726    0.0078 H         1 <0>         0.1282
     24 H3          3.3020    1.9860   -0.0192 H         1 <0>         0.1293
     25 H4          1.2180   -1.7604   -0.0194 H         1 <0>         0.1348
     26 H5         -0.9264   -0.5556    0.0083 H         1 <0>         0.1289
     27 H6          7.8124   -0.7360   -1.4376 H         1 <0>         0.4196
     28 H7          6.8412    0.5615   -1.8803 H         1 <0>         0.4208
     29 H8          6.9422   -4.7247    1.2623 H         1 <0>         0.1395
     30 H9          6.3105   -6.6613    2.6467 H         1 <0>         0.1399
     31 H10         4.0354   -6.8506    3.5509 H         1 <0>         0.1405
     32 H11         2.3631   -5.1023    3.0782 H         1 <0>         0.1406
@<TRIPOS>BOND
     1    1    6 ar
     2    1    2 ar
     3    1   22 1
     4    2    3 ar
     5    2   23 1
     6    3    4 ar
     7    3   24 1
     8    4    5 ar
     9    4    7 1
    10    5    6 ar
    11    5   25 1
    12    6   26 1
    13    7   12 ar
    14    7    8 ar
    15    8   20 1
    16    8    9 ar
    17    9   10 ar
    18    9   14 1
    19   10   11 ar
    20   11   12 ar
    21   11   13 1
    22   13   27 1
    23   13   28 1
    24   14   19 ar
    25   14   15 ar
    26   15   16 ar
    27   15   29 1
    28   16   17 ar
    29   16   30 1
    30   17   18 ar
    31   17   31 1
    32   18   19 ar
    33   18   32 1
    34   19   20 1
    35   20   21 2
