@<TRIPOS>MOLECULE
CHEMBL464928
   55    59     0     0     0
SMALL
USER_CHARGES

@<TRIPOS>ATOM
      1 C1         -0.0173    1.4248    0.0099 C.3       1 <0>         0.0265
      2 O1          0.0021   -0.0041    0.0020 O.3       1 <0>        -0.3121
      3 C2          0.6058   -0.6071   -1.0557 C.ar      1 <0>         0.1487
      4 C3          1.1730    0.1617   -2.0626 C.ar      1 <0>        -0.2166
      5 C4          1.7866   -0.4501   -3.1387 C.ar      1 <0>        -0.0583
      6 C5          1.8376   -1.8288   -3.2160 C.ar      1 <0>        -0.1693
      7 C6          1.2718   -2.6028   -2.2116 C.ar      1 <0>         0.1825
      8 C7          0.6605   -1.9901   -1.1269 C.ar      1 <0>        -0.1707
      9 N1          1.3231   -4.0010   -2.2904 N.am      1 <0>        -0.4625
     10 C8          1.9103   -4.7312   -3.3087 C.ar      1 <0>         0.3948
     11 C9          1.7334   -6.0841   -2.9900 C.ar      1 <0>        -0.0671
     12 C10         2.2333   -7.0423   -3.8543 C.ar      1 <0>         0.2219
     13 N2          2.8616   -6.6467   -4.9528 N.ar      1 <0>        -0.5438
     14 C11         3.0131   -5.3594   -5.2268 C.ar      1 <0>         0.5866
     15 N3          2.5489   -4.4117   -4.4255 N.ar      1 <0>        -0.5560
     16 N4          3.6769   -4.9928   -6.3872 N.pl3     1 <0>        -0.6864
     17 C12         4.1987   -6.0226   -7.2891 C.3       1 <0>         0.1930
     18 C13         4.8711   -5.3652   -8.4667 C.ar      1 <0>         0.1011
     19 C14         6.2383   -5.1620   -8.4468 C.ar      1 <0>        -0.1501
     20 C15         6.8471   -4.5564   -9.5351 C.ar      1 <0>        -0.0760
     21 C16         6.0545   -4.1761  -10.6075 C.ar      1 <0>        -0.1628
     22 C17         4.6939   -4.4118  -10.5562 C.ar      1 <0>         0.1002
     23 N5          4.1494   -4.9954   -9.5063 N.ar      1 <0>        -0.4674
     24 N6          1.0407   -6.1257   -1.7818 N.am      1 <0>        -0.5200
     25 C18         0.8143   -4.8581   -1.3849 C.2       1 <0>         0.6896
     26 O2          0.2354   -4.5365   -0.3642 O.2       1 <0>        -0.5087
     27 C19         0.6343   -7.3369   -1.0648 C.3       1 <0>         0.1778
     28 C20         1.7275   -7.7473   -0.1121 C.ar      1 <0>        -0.1996
     29 C21         2.7280   -8.6057   -0.5343 C.ar      1 <0>         0.1496
     30 C22         3.7319   -8.9822    0.3420 C.ar      1 <0>        -0.1673
     31 C23         3.7352   -8.5012    1.6376 C.ar      1 <0>        -0.0483
     32 C24         2.7365   -7.6445    2.0604 C.ar      1 <0>        -0.1681
     33 C25         1.7350   -7.2618    1.1841 C.ar      1 <0>         0.1570
     34 F1          0.7623   -6.4195    1.5958 F         1 <0>        -0.1114
     35 F2          2.7247   -9.0763   -1.8007 F         1 <0>        -0.1265
     36 H1          1.0053    1.8021    0.0021 H         1 <0>         0.0569
     37 H2         -0.5445    1.7859   -0.8732 H         1 <0>         0.0571
     38 H3         -0.5275    1.7763    0.9067 H         1 <0>         0.1023
     39 H4          1.1343    1.2395   -2.0049 H         1 <0>         0.1325
     40 H5          2.2270    0.1502   -3.9210 H         1 <0>         0.1343
     41 H6          2.3175   -2.3046   -4.0584 H         1 <0>         0.1542
     42 H7          0.2239   -2.5899   -0.3421 H         1 <0>         0.1648
     43 H8          2.1141   -8.0936   -3.6377 H         1 <0>         0.1802
     44 H9          3.7960   -4.0544   -6.6020 H         1 <0>         0.4163
     45 H10         4.9216   -6.6401   -6.7560 H         1 <0>         0.0875
     46 H11         3.3776   -6.6469   -7.6415 H         1 <0>         0.0895
     47 H12         6.8246   -5.4708   -7.5940 H         1 <0>         0.1382
     48 H13         7.9132   -4.3845   -9.5472 H         1 <0>         0.1382
     49 H14         6.4950   -3.7015  -11.4718 H         1 <0>         0.1384
     50 H15         4.0697   -4.1186  -11.3874 H         1 <0>         0.1596
     51 H16        -0.2797   -7.1383   -0.5052 H         1 <0>         0.1164
     52 H17         0.4553   -8.1397   -1.7800 H         1 <0>         0.1120
     53 H18         4.5124   -9.6522    0.0129 H         1 <0>         0.1469
     54 H19         4.5186   -8.7954    2.3204 H         1 <0>         0.1475
     55 H20         2.7397   -7.2698    3.0734 H         1 <0>         0.1467
@<TRIPOS>BOND
     1    1    2 1
     2    1   36 1
     3    1   37 1
     4    1   38 1
     5    2    3 1
     6    3    8 ar
     7    3    4 ar
     8    4    5 ar
     9    4   39 1
    10    5    6 ar
    11    5   40 1
    12    6    7 ar
    13    6   41 1
    14    7    8 ar
    15    7    9 1
    16    8   42 1
    17    9   25 am
    18    9   10 1
    19   10   15 ar
    20   10   11 ar
    21   11   12 ar
    22   11   24 1
    23   12   13 ar
    24   12   43 1
    25   13   14 ar
    26   14   15 ar
    27   14   16 1
    28   16   17 1
    29   16   44 1
    30   17   18 1
    31   17   45 1
    32   17   46 1
    33   18   23 ar
    34   18   19 ar
    35   19   20 ar
    36   19   47 1
    37   20   21 ar
    38   20   48 1
    39   21   22 ar
    40   21   49 1
    41   22   23 ar
    42   22   50 1
    43   24   25 am
    44   24   27 1
    45   25   26 2
    46   27   28 1
    47   27   51 1
    48   27   52 1
    49   28   33 ar
    50   28   29 ar
    51   29   30 ar
    52   29   35 1
    53   30   31 ar
    54   30   53 1
    55   31   32 ar
    56   31   54 1
    57   32   33 ar
    58   32   55 1
    59   33   34 1
