@<TRIPOS>MOLECULE
CHEMBL485765
   51    54     0     0     0
SMALL
USER_CHARGES

@<TRIPOS>ATOM
      1 C1         -0.2209    1.6514   -0.8047 C.3       1 <0>        -0.0737
      2 C2         -0.0893    0.1681   -0.5736 C.2       1 <0>         0.0914
      3 C3         -0.2434   -0.8290   -1.5443 C.2       1 <0>        -0.2646
      4 C4         -0.0487   -2.0265   -0.9470 C.2       1 <0>         0.1210
      5 N1          0.2209   -1.7927    0.3646 N.pl3     1 <0>        -0.3189
      6 N2          0.1938   -0.4066    0.5665 N.2       1 <0>        -0.2612
      7 C5          0.4826   -2.7598    1.3351 C.ar      1 <0>         0.5974
      8 N3          0.5922   -2.3886    2.5990 N.ar      1 <0>        -0.5194
      9 C6          0.8412   -3.2836    3.5540 C.ar      1 <0>         0.2711
     10 C7          0.9859   -4.6243    3.2034 C.ar      1 <0>        -0.2428
     11 C8          0.8630   -4.9737    1.8598 C.ar      1 <0>         0.4335
     12 N4          0.6089   -4.0240    0.9657 N.ar      1 <0>        -0.5283
     13 N5          0.9993   -6.2990    1.4609 N.am      1 <0>        -0.6545
     14 C9          0.9841   -6.6133    0.1503 C.2       1 <0>         0.5009
     15 O1          0.7589   -5.7551   -0.6764 O.2       1 <0>        -0.4675
     16 C10         1.2469   -8.0311   -0.2877 C.3       1 <0>        -0.1722
     17 C11         0.9632   -2.8586    4.9706 C.ar      1 <0>         0.1996
     18 C12         0.8105   -1.5163    5.3026 C.ar      1 <0>        -0.1730
     19 C13         0.9259   -1.1294    6.6293 C.ar      1 <0>        -0.0380
     20 C14         1.1905   -2.0985    7.5812 C.ar      1 <0>        -0.2149
     21 C15         1.3322   -3.4250    7.1818 C.ar      1 <0>         0.4246
     22 N6          1.2115   -3.7637    5.9093 N.ar      1 <0>        -0.5248
     23 N7          1.5984   -4.4042    8.1316 N.pl3     1 <0>        -0.6181
     24 C16         1.8806   -5.8189    7.8479 C.3       1 <0>         0.1207
     25 C17         2.0874   -6.5258    9.2041 C.3       1 <0>        -0.1347
     26 C18         1.3522   -5.5898   10.1995 C.3       1 <0>        -0.1336
     27 C19         1.6509   -4.1949    9.5900 C.3       1 <0>         0.1157
     28 C20        -0.1187   -3.3759   -1.6143 C.3       1 <0>        -0.0818
     29 H1          0.7495    2.0636   -1.0813 H         1 <0>         0.0815
     30 H2         -0.9349    1.8320   -1.6083 H         1 <0>         0.0820
     31 H3         -0.5726    2.1316    0.1085 H         1 <0>         0.0764
     32 H4         -0.4767   -0.6698   -2.5867 H         1 <0>         0.1584
     33 H5          1.1885   -5.3740    3.9540 H         1 <0>         0.1639
     34 H6          1.1053   -6.9972    2.1258 H         1 <0>         0.4254
     35 H7          0.4982   -8.6913    0.1501 H         1 <0>         0.0931
     36 H8          1.1934   -8.0913   -1.3747 H         1 <0>         0.1005
     37 H9          2.2392   -8.3360    0.0447 H         1 <0>         0.0933
     38 H10         0.6048   -0.7840    4.5360 H         1 <0>         0.1486
     39 H11         0.8121   -0.0937    6.9136 H         1 <0>         0.1414
     40 H12         1.2864   -1.8288    8.6226 H         1 <0>         0.1343
     41 H13         1.0378   -6.2666    7.3212 H         1 <0>         0.0645
     42 H14         2.7845   -5.9028    7.2445 H         1 <0>         0.0627
     43 H15         1.6310   -7.5156    9.1965 H         1 <0>         0.0829
     44 H16         3.1479   -6.5908    9.4473 H         1 <0>         0.0766
     45 H17         0.2815   -5.7942   10.2099 H         1 <0>         0.0774
     46 H18         1.7744   -5.6754   11.2007 H         1 <0>         0.0863
     47 H19         2.6416   -3.8522    9.8886 H         1 <0>         0.0675
     48 H20         0.8913   -3.4763    9.8977 H         1 <0>         0.0743
     49 H21         0.8848   -3.6941   -1.8968 H         1 <0>         0.0849
     50 H22        -0.5488   -4.1010   -0.9235 H         1 <0>         0.0992
     51 H23        -0.7428   -3.3085   -2.5055 H         1 <0>         0.0713
@<TRIPOS>BOND
     1    1    2 1
     2    1   29 1
     3    1   30 1
     4    1   31 1
     5    2    6 2
     6    2    3 1
     7    3    4 2
     8    3   32 1
     9    4    5 1
    10    4   28 1
    11    5    6 1
    12    5    7 1
    13    7   12 ar
    14    7    8 ar
    15    8    9 ar
    16    9   10 ar
    17    9   17 1
    18   10   11 ar
    19   10   33 1
    20   11   12 ar
    21   11   13 1
    22   13   14 am
    23   13   34 1
    24   14   15 2
    25   14   16 1
    26   16   35 1
    27   16   36 1
    28   16   37 1
    29   17   22 ar
    30   17   18 ar
    31   18   19 ar
    32   18   38 1
    33   19   20 ar
    34   19   39 1
    35   20   21 ar
    36   20   40 1
    37   21   22 ar
    38   21   23 1
    39   23   27 1
    40   23   24 1
    41   24   25 1
    42   24   41 1
    43   24   42 1
    44   25   26 1
    45   25   43 1
    46   25   44 1
    47   26   27 1
    48   26   45 1
    49   26   46 1
    50   27   47 1
    51   27   48 1
    52   28   49 1
    53   28   50 1
    54   28   51 1
