@<TRIPOS>MOLECULE
CHEMBL256546
   71    75     0     0     0
SMALL
USER_CHARGES

@<TRIPOS>ATOM
      1 C1          8.3276   -1.9632   -0.0229 C.3       1 <0>        -0.0809
      2 C2          7.2456   -3.0122   -0.0325 C.2       1 <0>         0.0267
      3 C3          7.4442   -4.3460   -0.0478 C.2       1 <0>        -0.2267
      4 C4          6.1740   -4.9523   -0.0521 C.2       1 <0>        -0.1101
      5 C5          5.2590   -3.9452   -0.0390 C.2       1 <0>         0.0069
      6 O1          5.9255   -2.7740   -0.0213 O.3       1 <0>        -0.1504
      7 C6          3.7924   -4.1072   -0.0379 C.ar      1 <0>         0.4642
      8 N1          3.2761   -5.3312   -0.0451 N.ar      1 <0>        -0.5075
      9 C7          1.9604   -5.5132   -0.0444 C.ar      1 <0>         0.4363
     10 C8          1.1213   -4.4006   -0.0358 C.ar      1 <0>        -0.2588
     11 C9          1.6977   -3.1348   -0.0284 C.ar      1 <0>         0.4568
     12 N2          3.0215   -3.0261   -0.0242 N.ar      1 <0>        -0.5420
     13 N3          0.8947   -1.9926   -0.0198 N.pl3     1 <0>        -0.3355
     14 C10         1.2507   -0.7669    0.4467 C.2       1 <0>         0.1168
     15 C11         0.1939    0.0593    0.2742 C.2       1 <0>        -0.2583
     16 C12        -0.8398   -0.6788   -0.3144 C.2       1 <0>         0.1057
     17 N4         -0.4198   -1.9040   -0.4962 N.2       1 <0>        -0.2867
     18 C13        -2.2022   -0.1499   -0.6819 C.3       1 <0>        -0.0773
     19 C14         2.5818   -0.3957    1.0479 C.3       1 <0>        -0.0893
     20 N5          1.4270   -6.7978   -0.0524 N.am      1 <0>        -0.6489
     21 C15         2.2422   -7.8653   -0.1639 C.2       1 <0>         0.5075
     22 O2          3.4451   -7.7122   -0.1643 O.2       1 <0>        -0.4345
     23 C16         1.6587   -9.2492   -0.2879 C.3       1 <0>         0.0438
     24 O3          2.7164  -10.2045   -0.3918 O.3       1 <0>        -0.2863
     25 C17         2.3590  -11.5102   -0.5112 C.ar      1 <0>         0.1378
     26 C18         1.0175  -11.8642   -0.5339 C.ar      1 <0>        -0.1973
     27 C19         0.6568  -13.1919   -0.6559 C.ar      1 <0>        -0.0697
     28 C20         1.6313  -14.1681   -0.7553 C.ar      1 <0>        -0.1462
     29 C21         2.9685  -13.8180   -0.7325 C.ar      1 <0>        -0.0659
     30 C22         3.3345  -12.4908   -0.6164 C.ar      1 <0>        -0.1390
     31 C23         4.0279  -14.8844   -0.8406 C.3       1 <0>        -0.1003
     32 C24         4.3756  -15.1104   -2.3133 C.3       1 <0>        -0.0066
     33 N6          5.4082  -16.1499   -2.4187 N.4       1 <0>        -0.3856
     34 C25         6.6503  -15.6716   -1.7960 C.3       1 <0>        -0.0498
     35 C26         7.7245  -16.7564   -1.9069 C.3       1 <0>         0.0364
     36 O4          7.9208  -17.0865   -3.2847 O.3       1 <0>        -0.3566
     37 C27         6.7325  -17.5355   -3.9422 C.3       1 <0>         0.0359
     38 C28         5.6565  -16.4521   -3.8351 C.3       1 <0>        -0.0435
     39 H1          7.8730   -0.9726   -0.0058 H         1 <0>         0.0807
     40 H2          8.9509   -2.0922    0.8620 H         1 <0>         0.0925
     41 H3          8.9413   -2.0660   -0.9178 H         1 <0>         0.0921
     42 H4          8.3977   -4.8532   -0.0557 H         1 <0>         0.1571
     43 H5          5.9658   -6.0120   -0.0639 H         1 <0>         0.1646
     44 H6          0.0478   -4.5186   -0.0354 H         1 <0>         0.1632
     45 H7          0.1544    1.1044    0.5435 H         1 <0>         0.1610
     46 H8         -2.1808    0.2311   -1.7029 H         1 <0>         0.0846
     47 H9         -2.9355   -0.9532   -0.6092 H         1 <0>         0.0774
     48 H10        -2.4759    0.6547    0.0005 H         1 <0>         0.0856
     49 H11         3.2532   -0.0531    0.2605 H         1 <0>         0.0892
     50 H12         2.4411    0.4015    1.7778 H         1 <0>         0.0849
     51 H13         3.0138   -1.2670    1.5402 H         1 <0>         0.0778
     52 H14         0.4683   -6.9254    0.0222 H         1 <0>         0.4269
     53 H15         1.0554   -9.4695    0.5927 H         1 <0>         0.1031
     54 H16         1.0333   -9.3013   -1.1791 H         1 <0>         0.1031
     55 H17         0.2561  -11.1023   -0.4559 H         1 <0>         0.1351
     56 H18        -0.3871  -13.4680   -0.6733 H         1 <0>         0.1346
     57 H19         1.3473  -15.2057   -0.8506 H         1 <0>         0.1277
     58 H20         4.3792  -12.2173   -0.6031 H         1 <0>         0.1350
     59 H21         4.9201  -14.5662   -0.3013 H         1 <0>         0.0977
     60 H22         3.6542  -15.8128   -0.4089 H         1 <0>         0.0992
     61 H23         3.4834  -15.4286   -2.8526 H         1 <0>         0.1355
     62 H24         4.7493  -14.1819   -2.7450 H         1 <0>         0.1337
     63 H25         6.9895  -14.7704   -2.3069 H         1 <0>         0.1404
     64 H26         6.4672  -15.4471   -0.7452 H         1 <0>         0.1440
     65 H27         8.6591  -16.3878   -1.4842 H         1 <0>         0.1422
     66 H28         7.4029  -17.6441   -1.3622 H         1 <0>         0.0814
     67 H29         6.9492  -17.7308   -4.9924 H         1 <0>         0.1421
     68 H30         6.3770  -18.4499   -3.4671 H         1 <0>         0.0813
     69 H31         4.7357  -16.8072   -4.2979 H         1 <0>         0.1429
     70 H32         5.9961  -15.5507   -4.3451 H         1 <0>         0.1393
     71 H33         5.0948  -16.9846   -1.9464 H         1 <0>         0.4229
@<TRIPOS>BOND
     1    1    2 1
     2    1   39 1
     3    1   40 1
     4    1   41 1
     5    2    6 1
     6    2    3 2
     7    3    4 1
     8    3   42 1
     9    4    5 2
    10    4   43 1
    11    5    6 1
    12    5    7 1
    13    7   12 ar
    14    7    8 ar
    15    8    9 ar
    16    9   10 ar
    17    9   20 1
    18   10   11 ar
    19   10   44 1
    20   11   12 ar
    21   11   13 1
    22   13   17 1
    23   13   14 1
    24   14   15 2
    25   14   19 1
    26   15   16 1
    27   15   45 1
    28   16   17 2
    29   16   18 1
    30   18   46 1
    31   18   47 1
    32   18   48 1
    33   19   49 1
    34   19   50 1
    35   19   51 1
    36   20   21 am
    37   20   52 1
    38   21   22 2
    39   21   23 1
    40   23   24 1
    41   23   53 1
    42   23   54 1
    43   24   25 1
    44   25   30 ar
    45   25   26 ar
    46   26   27 ar
    47   26   55 1
    48   27   28 ar
    49   27   56 1
    50   28   29 ar
    51   28   57 1
    52   29   30 ar
    53   29   31 1
    54   30   58 1
    55   31   32 1
    56   31   59 1
    57   31   60 1
    58   32   33 1
    59   32   61 1
    60   32   62 1
    61   33   38 1
    62   33   34 1
    63   33   71 1
    64   34   35 1
    65   34   63 1
    66   34   64 1
    67   35   36 1
    68   35   65 1
    69   35   66 1
    70   36   37 1
    71   37   38 1
    72   37   67 1
    73   37   68 1
    74   38   69 1
    75   38   70 1
