@<TRIPOS>MOLECULE
CHEMBL196259
   40    43     0     0     0
SMALL
USER_CHARGES

@<TRIPOS>ATOM
      1 C1         -0.0178    1.4608    0.0101 C.3       1 <0>         0.0760
      2 N1          0.0021   -0.0041    0.0020 N.pl3     1 <0>        -0.4633
      3 C2          0.0080   -0.8110   -1.1094 C.ar      1 <0>         0.3206
      4 C3          0.0281   -2.1326   -0.6315 C.ar      1 <0>        -0.0987
      5 C4          0.0381   -3.1775   -1.5712 C.ar      1 <0>         0.5168
      6 N2          0.0281   -2.8672   -2.8635 N.ar      1 <0>        -0.5806
      7 C5          0.0092   -1.6094   -3.2647 C.ar      1 <0>         0.3940
      8 N3         -0.0007   -0.5987   -2.4209 N.ar      1 <0>        -0.5492
      9 C6         -0.0008   -1.3198   -4.7435 C.3       1 <0>        -0.0401
     10 C7         -1.4466   -1.2416   -5.2381 C.3       1 <0>        -0.0707
     11 C8         -1.4567   -0.9520   -6.7169 C.ar      1 <0>        -0.0820
     12 C9         -1.4707    0.3556   -7.1651 C.ar      1 <0>        -0.1147
     13 C10        -1.4799    0.6213   -8.5216 C.ar      1 <0>        -0.1192
     14 C11        -1.4747   -0.4207   -9.4301 C.ar      1 <0>        -0.1236
     15 C12        -1.4597   -1.7283   -8.9819 C.ar      1 <0>        -0.1190
     16 C13        -1.4461   -1.9939   -7.6254 C.ar      1 <0>        -0.1142
     17 N4          0.0584   -4.4994   -1.1603 N.pl3     1 <0>        -0.8134
     18 N5          0.0334   -2.0707    0.7215 N.2       1 <0>        -0.4397
     19 C14         0.0240   -0.8193    1.0994 C.2       1 <0>         0.5298
     20 N6          0.0312   -0.3821    2.4217 N.pl3     1 <0>        -0.2371
     21 N7          0.0113    0.9494    2.8644 N.2       1 <0>        -0.2372
     22 C15         0.0262    0.9299    4.1748 C.2       1 <0>         0.0337
     23 C16         0.0555   -0.3905    4.6112 C.2       1 <0>         0.0149
     24 N8          0.0536   -1.1874    3.5707 N.2       1 <0>        -0.1862
     25 H1          1.0048    1.8381    0.0023 H         1 <0>         0.0803
     26 H2         -0.5450    1.8219   -0.8730 H         1 <0>         0.0960
     27 H3         -0.5280    1.8123    0.9069 H         1 <0>         0.1028
     28 H4          0.4992   -0.3697   -4.9311 H         1 <0>         0.0949
     29 H5          0.5218   -2.1163   -5.2733 H         1 <0>         0.0970
     30 H6         -1.9467   -2.1917   -5.0505 H         1 <0>         0.0781
     31 H7         -1.9692   -0.4451   -4.7083 H         1 <0>         0.0766
     32 H8         -1.4748    1.1697   -6.4554 H         1 <0>         0.1225
     33 H9         -1.4916    1.6429   -8.8718 H         1 <0>         0.1213
     34 H10        -1.4826   -0.2131  -10.4899 H         1 <0>         0.1204
     35 H11        -1.4559   -2.5423   -9.6916 H         1 <0>         0.1216
     36 H12        -1.4307   -3.0154   -7.2753 H         1 <0>         0.1233
     37 H13         0.0658   -4.7131   -0.2142 H         1 <0>         0.4207
     38 H14         0.0651   -5.2118   -1.8185 H         1 <0>         0.4126
     39 H15         0.0174    1.8004    4.8140 H         1 <0>         0.2173
     40 H16         0.0732   -0.7084    5.6432 H         1 <0>         0.2178
@<TRIPOS>BOND
     1    1    2 1
     2    1   25 1
     3    1   26 1
     4    1   27 1
     5    2   19 1
     6    2    3 1
     7    3    8 ar
     8    3    4 ar
     9    4    5 ar
    10    4   18 1
    11    5    6 ar
    12    5   17 1
    13    6    7 ar
    14    7    8 ar
    15    7    9 1
    16    9   10 1
    17    9   28 1
    18    9   29 1
    19   10   11 1
    20   10   30 1
    21   10   31 1
    22   11   16 ar
    23   11   12 ar
    24   12   13 ar
    25   12   32 1
    26   13   14 ar
    27   13   33 1
    28   14   15 ar
    29   14   34 1
    30   15   16 ar
    31   15   35 1
    32   16   36 1
    33   17   37 1
    34   17   38 1
    35   18   19 2
    36   19   20 1
    37   20   24 1
    38   20   21 1
    39   21   22 2
    40   22   23 1
    41   22   39 1
    42   23   24 2
    43   23   40 1
