@<TRIPOS>MOLECULE
CHEMBL75416
   84    86     0     0     0
SMALL
USER_CHARGES

@<TRIPOS>ATOM
      1 C1         -0.5783    1.6226   -1.2012 C.3       1 <0>        -0.1849
      2 C2         -0.4701    0.1134   -0.9743 C.3       1 <0>         0.1179
      3 C3          0.2388   -0.1530    0.3551 C.3       1 <0>        -0.1855
      4 C4         -1.8720   -0.4984   -0.9364 C.3       1 <0>        -0.1408
      5 O1          0.2781   -0.4760   -2.0396 O.3       1 <0>        -0.3513
      6 C5          1.5381   -0.0457   -2.2101 C.2       1 <0>         0.4656
      7 O2          1.9907    0.8032   -1.4792 O.2       1 <0>        -0.4726
      8 C6          2.3882   -0.6215   -3.3133 C.3       1 <0>         0.0804
      9 C7          1.7518   -0.3089   -4.6840 C.3       1 <0>        -0.1302
     10 C8          2.5258    0.9526   -5.1491 C.3       1 <0>        -0.1372
     11 C9          3.9463    0.6681   -4.6007 C.3       1 <0>         0.0567
     12 N1          3.7224    0.0059   -3.2979 N.3       1 <0>        -0.5031
     13 C10         4.7687   -0.9887   -3.0262 C.3       1 <0>         0.0253
     14 C11         6.0975   -0.2743   -2.7711 C.3       1 <0>         0.1095
     15 C12         7.1873   -1.3102   -2.4881 C.3       1 <0>         0.1263
     16 H1          6.9141   -1.8941   -1.6091 H         1 <0>         0.1015
     17 C13         8.5160   -0.5959   -2.2330 C.3       1 <0>        -0.0866
     18 C14         9.5609   -1.6060   -1.8341 C.ar      1 <0>        -0.0653
     19 C15         9.7374   -1.9283   -0.5014 C.ar      1 <0>        -0.1063
     20 C16        10.6958   -2.8548   -0.1355 C.ar      1 <0>        -0.1109
     21 C17        11.4774   -3.4593   -1.1022 C.ar      1 <0>        -0.1193
     22 C18        11.3002   -3.1377   -2.4349 C.ar      1 <0>        -0.1118
     23 C19        10.3389   -2.2144   -2.8012 C.ar      1 <0>        -0.1124
     24 N2          7.3257   -2.2013   -3.6426 N.am      1 <0>        -0.7298
     25 C20         7.8152   -3.4463   -3.4782 C.2       1 <0>         0.5179
     26 O3          8.1411   -3.8288   -2.3744 O.2       1 <0>        -0.4784
     27 C21         7.9575   -4.3629   -4.6659 C.3       1 <0>         0.1658
     28 H2          8.6287   -3.9103   -5.3958 H         1 <0>         0.1226
     29 C22         6.5854   -4.5866   -5.3048 C.3       1 <0>        -0.1608
     30 C23         5.6806   -5.2824   -4.3209 C.2       1 <0>         0.5119
     31 O4          6.0672   -5.5034   -3.1928 O.2       1 <0>        -0.5195
     32 N3          4.4416   -5.6591   -4.6945 N.am      1 <0>        -0.8555
     33 N4          8.5076   -5.6481   -4.2277 N.am      1 <0>        -0.6807
     34 C24         9.2308   -6.3982   -5.0825 C.2       1 <0>         0.6518
     35 O5          9.3517   -6.0527   -6.2412 O.2       1 <0>        -0.5763
     36 O6          9.8193   -7.5302   -4.6527 O.3       1 <0>        -0.3542
     37 C25        10.5704   -8.2759   -5.6127 C.3       1 <0>         0.1292
     38 C26        11.1509   -9.5011   -4.9547 C.ar      1 <0>        -0.1012
     39 C27        12.3976   -9.4414   -4.3605 C.ar      1 <0>        -0.0924
     40 C28        12.9301  -10.5652   -3.7569 C.ar      1 <0>        -0.1229
     41 C29        12.2157  -11.7486   -3.7471 C.ar      1 <0>        -0.1070
     42 C30        10.9686  -11.8080   -4.3405 C.ar      1 <0>        -0.1234
     43 C31        10.4343  -10.6831   -4.9403 C.ar      1 <0>        -0.0934
     44 O7          6.4556    0.4912   -3.9234 O.3       1 <0>        -0.5422
     45 H3          0.4204    2.0585   -1.2282 H         1 <0>         0.0841
     46 H4         -1.0833    1.8124   -2.1483 H         1 <0>         0.0599
     47 H5         -1.1490    2.0722   -0.3886 H         1 <0>         0.0703
     48 H6         -0.3320    0.2966    1.1677 H         1 <0>         0.0707
     49 H7          0.3158   -1.2282    0.5167 H         1 <0>         0.0597
     50 H8          1.2375    0.2828    0.3281 H         1 <0>         0.0837
     51 H9         -2.3770   -0.3086   -1.8835 H         1 <0>         0.0661
     52 H10        -1.7949   -1.5736   -0.7748 H         1 <0>         0.0659
     53 H11        -2.4427   -0.0488   -0.1238 H         1 <0>         0.0783
     54 H12         2.4838   -1.6995   -3.1833 H         1 <0>         0.0967
     55 H13         1.9075   -1.1345   -5.3784 H         1 <0>         0.0823
     56 H14         0.6894   -0.0909   -4.5749 H         1 <0>         0.0860
     57 H15         2.5346    1.0263   -6.2366 H         1 <0>         0.0817
     58 H16         2.1077    1.8543   -4.7016 H         1 <0>         0.0768
     59 H17         4.4878    0.0050   -5.2753 H         1 <0>         0.0462
     60 H18         4.4938    1.6006   -4.4633 H         1 <0>         0.0995
     61 H19         4.4955   -1.5726   -2.1472 H         1 <0>         0.0846
     62 H20         4.8717   -1.6517   -3.8852 H         1 <0>         0.0411
     63 H21         5.9945    0.3887   -1.9120 H         1 <0>         0.1255
     64 H22         8.8336   -0.0841   -3.1414 H         1 <0>         0.0815
     65 H23         8.3893    0.1317   -1.4314 H         1 <0>         0.0831
     66 H24         9.1268   -1.4559    0.2538 H         1 <0>         0.1142
     67 H25        10.8342   -3.1060    0.9057 H         1 <0>         0.1156
     68 H26        12.2267   -4.1827   -0.8163 H         1 <0>         0.1143
     69 H27        11.9111   -3.6098   -3.1902 H         1 <0>         0.1112
     70 H28        10.1980   -1.9659   -3.8428 H         1 <0>         0.1074
     71 H29         7.0650   -1.8954   -4.5254 H         1 <0>         0.3900
     72 H30         6.1518   -3.6253   -5.5803 H         1 <0>         0.1067
     73 H31         6.6960   -5.2041   -6.1962 H         1 <0>         0.1142
     74 H32         4.1324   -5.4823   -5.5967 H         1 <0>         0.4012
     75 H33         3.8592   -6.1069   -4.0612 H         1 <0>         0.4040
     76 H34         8.3512   -5.9591   -3.3223 H         1 <0>         0.4255
     77 H35         9.9163   -8.5782   -6.4306 H         1 <0>         0.0776
     78 H36        11.3777   -7.6562   -6.0032 H         1 <0>         0.0786
     79 H37        12.9558   -8.5168   -4.3682 H         1 <0>         0.1248
     80 H38        13.9045  -10.5188   -3.2933 H         1 <0>         0.1264
     81 H39        12.6320  -12.6268   -3.2761 H         1 <0>         0.1252
     82 H40        10.4106  -12.7327   -4.3331 H         1 <0>         0.1260
     83 H41         9.4584  -10.7285   -5.4007 H         1 <0>         0.1239
     84 H42         6.5644   -0.0354   -4.7271 H         1 <0>         0.3632
@<TRIPOS>BOND
     1    1    2 1
     2    1   45 1
     3    1   46 1
     4    1   47 1
     5    2    3 1
     6    2    4 1
     7    2    5 1
     8    3   48 1
     9    3   49 1
    10    3   50 1
    11    4   51 1
    12    4   52 1
    13    4   53 1
    14    5    6 1
    15    6    7 2
    16    6    8 1
    17    8   12 1
    18    8    9 1
    19    8   54 1
    20    9   10 1
    21    9   55 1
    22    9   56 1
    23   10   11 1
    24   10   57 1
    25   10   58 1
    26   11   12 1
    27   11   59 1
    28   11   60 1
    29   12   13 1
    30   13   14 1
    31   13   61 1
    32   13   62 1
    33   14   15 1
    34   14   44 1
    35   14   63 1
    36   15   16 1
    37   15   17 1
    38   15   24 1
    39   17   18 1
    40   17   64 1
    41   17   65 1
    42   18   23 ar
    43   18   19 ar
    44   19   20 ar
    45   19   66 1
    46   20   21 ar
    47   20   67 1
    48   21   22 ar
    49   21   68 1
    50   22   23 ar
    51   22   69 1
    52   23   70 1
    53   24   25 am
    54   24   71 1
    55   25   26 2
    56   25   27 1
    57   27   28 1
    58   27   29 1
    59   27   33 1
    60   29   30 1
    61   29   72 1
    62   29   73 1
    63   30   31 2
    64   30   32 am
    65   32   74 1
    66   32   75 1
    67   33   34 am
    68   33   76 1
    69   34   35 2
    70   34   36 1
    71   36   37 1
    72   37   38 1
    73   37   77 1
    74   37   78 1
    75   38   43 ar
    76   38   39 ar
    77   39   40 ar
    78   39   79 1
    79   40   41 ar
    80   40   80 1
    81   41   42 ar
    82   41   81 1
    83   42   43 ar
    84   42   82 1
    85   43   83 1
    86   44   84 1
