@<TRIPOS>MOLECULE
CHEMBL606105
   60    64     0     0     0
SMALL
USER_CHARGES

@<TRIPOS>ATOM
      1 C1          0.1868    1.4089    0.0564 C.ar      1 <0>        -0.1354
      2 C2          1.4372    1.9223   -0.2355 C.ar      1 <0>        -0.1016
      3 C3          2.3727    1.1396   -0.8831 C.ar      1 <0>        -0.1463
      4 C4          2.0567   -0.1650   -1.2408 C.ar      1 <0>         0.1426
      5 C5          0.7999   -0.6777   -0.9456 C.ar      1 <0>        -0.1182
      6 C6         -0.1311    0.1106   -0.2983 C.ar      1 <0>        -0.1001
      7 N1          3.0010   -0.9597   -1.8968 N.pl3     1 <0>        -0.6258
      8 C7          2.9927   -2.3333   -1.7200 C.ar      1 <0>         0.5112
      9 C8          3.9891   -3.1386   -2.3019 C.ar      1 <0>        -0.0823
     10 C9          3.9325   -4.5277   -2.0902 C.ar      1 <0>         0.3211
     11 N2          2.9492   -5.0309   -1.3543 N.ar      1 <0>        -0.5304
     12 C10         2.0294   -4.2366   -0.8235 C.ar      1 <0>         0.5386
     13 N3          2.0481   -2.9171   -0.9938 N.ar      1 <0>        -0.5280
     14 N4          1.0304   -4.7922   -0.0709 N.2       1 <0>        -0.2399
     15 N5          1.0490   -6.0543    0.1950 N.2       1 <0>         0.1114
     16 N6          0.0857   -6.6042    1.0508 N.am      1 <0>        -0.5513
     17 C11         0.1641   -7.9011    1.4090 C.2       1 <0>         0.7384
     18 O1         -0.7221   -8.4031    2.0725 O.2       1 <0>        -0.5385
     19 N7          1.2251   -8.6415    1.0314 N.am      1 <0>        -0.6677
     20 C12         1.2196  -10.0261    1.2335 C.ar      1 <0>         0.1583
     21 C13         0.0558  -10.7549    1.0260 C.ar      1 <0>        -0.1175
     22 C14         0.0537  -12.1215    1.2259 C.ar      1 <0>        -0.0996
     23 C15         1.2087  -12.7640    1.6326 C.ar      1 <0>        -0.1312
     24 C16         2.3691  -12.0411    1.8400 C.ar      1 <0>        -0.1000
     25 C17         2.3793  -10.6751    1.6364 C.ar      1 <0>        -0.1377
     26 N8          5.0074   -5.0563   -2.7603 N.pl3     1 <0>        -0.4676
     27 C18         5.6734   -4.0204   -3.3453 C.2       1 <0>         0.2791
     28 N9          5.0742   -2.8969   -3.0749 N.2       1 <0>        -0.4579
     29 C19         5.3725   -6.4733   -2.8330 C.3       1 <0>         0.3125
     30 C20         4.6563   -7.1529   -4.0210 C.3       1 <0>         0.0790
     31 H1          4.3932   -6.4165   -4.7803 H         1 <0>         0.0861
     32 C21         5.7030   -8.1474   -4.5712 C.3       1 <0>         0.0476
     33 H2          5.9573   -7.9026   -5.6025 H         1 <0>         0.0876
     34 C22         6.9277   -7.9510   -3.6505 C.3       1 <0>         0.0509
     35 H3          6.9166   -8.6830   -2.8429 H         1 <0>         0.1009
     36 O2          6.7807   -6.6155   -3.1206 O.3       1 <0>        -0.3461
     37 C23         8.2235   -8.0674   -4.4557 C.3       1 <0>         0.0819
     38 O3          9.3426   -7.9991   -3.5697 O.3       1 <0>        -0.5635
     39 O4          5.2157   -9.4878   -4.4817 O.3       1 <0>        -0.5380
     40 O5          3.4901   -7.8463   -3.5724 O.3       1 <0>        -0.5254
     41 H4         -0.5416    2.0217    0.5666 H         1 <0>         0.1220
     42 H5          1.6823    2.9366    0.0428 H         1 <0>         0.1254
     43 H6          3.3489    1.5414   -1.1115 H         1 <0>         0.1243
     44 H7          0.5508   -1.6914   -1.2227 H         1 <0>         0.1536
     45 H8         -1.1085   -0.2874   -0.0685 H         1 <0>         0.1256
     46 H9          3.6622   -0.5493   -2.4758 H         1 <0>         0.4308
     47 H10        -0.6377   -6.0515    1.3856 H         1 <0>         0.4174
     48 H11         1.9926   -8.2146    0.6196 H         1 <0>         0.4203
     49 H12        -0.8467  -10.2536    0.7090 H         1 <0>         0.1281
     50 H13        -0.8510  -12.6888    1.0647 H         1 <0>         0.1270
     51 H14         1.2043  -13.8326    1.7889 H         1 <0>         0.1246
     52 H15         3.2695  -12.5458    2.1580 H         1 <0>         0.1275
     53 H16         3.2871  -10.1118    1.7943 H         1 <0>         0.1262
     54 H17         6.5667   -4.1176   -3.9444 H         1 <0>         0.2288
     55 H18         5.1233   -6.9770   -1.8990 H         1 <0>         0.1253
     56 H19         8.2375   -9.0196   -4.9860 H         1 <0>         0.0676
     57 H20         8.2791   -7.2502   -5.1748 H         1 <0>         0.0613
     58 H21        10.1996   -8.0666   -4.0125 H         1 <0>         0.3874
     59 H22         5.8332  -10.1538   -4.8136 H         1 <0>         0.3881
     60 H23         3.0016   -8.2918   -4.2781 H         1 <0>         0.3918
@<TRIPOS>BOND
     1    1    6 ar
     2    1    2 ar
     3    1   41 1
     4    2    3 ar
     5    2   42 1
     6    3    4 ar
     7    3   43 1
     8    4    5 ar
     9    4    7 1
    10    5    6 ar
    11    5   44 1
    12    6   45 1
    13    7    8 1
    14    7   46 1
    15    8   13 ar
    16    8    9 ar
    17    9   28 1
    18    9   10 ar
    19   10   11 ar
    20   10   26 1
    21   11   12 ar
    22   12   13 ar
    23   12   14 1
    24   14   15 2
    25   15   16 1
    26   16   17 am
    27   16   47 1
    28   17   18 2
    29   17   19 am
    30   19   20 1
    31   19   48 1
    32   20   25 ar
    33   20   21 ar
    34   21   22 ar
    35   21   49 1
    36   22   23 ar
    37   22   50 1
    38   23   24 ar
    39   23   51 1
    40   24   25 ar
    41   24   52 1
    42   25   53 1
    43   26   27 1
    44   26   29 1
    45   27   28 2
    46   27   54 1
    47   29   36 1
    48   29   30 1
    49   29   55 1
    50   30   31 1
    51   30   32 1
    52   30   40 1
    53   32   33 1
    54   32   34 1
    55   32   39 1
    56   34   35 1
    57   34   36 1
    58   34   37 1
    59   37   38 1
    60   37   56 1
    61   37   57 1
    62   38   58 1
    63   39   59 1
    64   40   60 1
