@<TRIPOS>MOLECULE
CHEMBL246262
   54    59     0     0     0
SMALL
USER_CHARGES

@<TRIPOS>ATOM
      1 C1         -0.0162    1.3433    0.0094 C.2       1 <0>        -0.2206
      2 C2          1.3252    1.7743   -0.0011 C.2       1 <0>        -0.1278
      3 C3          2.0962    0.6548   -0.0144 C.2       1 <0>         0.0287
      4 O1          1.2797   -0.4166   -0.0124 O.3       1 <0>        -0.1516
      5 C4          0.0021   -0.0041    0.0020 C.2       1 <0>         0.0052
      6 C5          3.5737    0.6193   -0.0292 C.2       1 <0>         0.3585
      7 N1          4.3216   -0.4904   -0.0476 N.2       1 <0>        -0.4901
      8 C6          5.5988   -0.1630   -0.0576 C.2       1 <0>         0.3920
      9 C7          6.8477   -0.9205   -0.0777 C.2       1 <0>        -0.0176
     10 C8          8.0482   -0.2033   -0.0831 C.2       1 <0>         0.2900
     11 N2          8.0241    1.1346   -0.0704 N.2       1 <0>        -0.5636
     12 C9          6.9027    1.8137   -0.0530 C.2       1 <0>         0.6864
     13 N3          5.6823    1.2057   -0.0451 N.pl3     1 <0>        -0.3669
     14 N4          4.3634    1.6772   -0.0320 N.2       1 <0>        -0.2890
     15 N5          6.9595    3.1893   -0.0404 N.pl3     1 <0>        -0.7996
     16 N6          9.0487   -1.1423   -0.1025 N.pl3     1 <0>        -0.4625
     17 C10         8.4571   -2.3702   -0.1084 C.2       1 <0>         0.2253
     18 N7          7.1617   -2.2351   -0.0938 N.2       1 <0>        -0.4141
     19 C11        10.4889   -0.8741   -0.1146 C.3       1 <0>         0.0940
     20 C12        10.9820   -0.6711    1.3194 C.3       1 <0>        -0.0297
     21 N8         12.4261   -0.4022    1.3072 N.4       1 <0>        -0.3806
     22 C13        13.1380   -1.5840    0.8045 C.3       1 <0>        -0.0299
     23 C14        14.6319   -1.2658    0.6830 C.3       1 <0>         0.1079
     24 N9         15.1117   -0.7760    1.9846 N.pl3     1 <0>        -0.6037
     25 C15        14.3565    0.3024    2.6408 C.3       1 <0>         0.1077
     26 C16        12.8755   -0.0898    2.6698 C.3       1 <0>        -0.0192
     27 C17        16.2430   -1.3149    2.5754 C.ar      1 <0>         0.5486
     28 N10        16.8999   -2.2809    1.9512 N.ar      1 <0>        -0.5394
     29 C18        17.9839   -2.8178    2.4869 C.ar      1 <0>         0.1757
     30 C19        18.4298   -2.3565    3.7175 C.ar      1 <0>        -0.0413
     31 C20        17.7169   -1.3433    4.3430 C.ar      1 <0>         0.1757
     32 N11        16.6441   -0.8477    3.7481 N.ar      1 <0>        -0.5397
     33 F1         19.5327   -2.8823    4.2939 F         1 <0>        -0.1133
     34 H1         -0.8931    1.9736    0.0252 H         1 <0>         0.1624
     35 H2          1.6736    2.7966    0.0011 H         1 <0>         0.1612
     36 H3         -0.8667   -0.6456    0.0072 H         1 <0>         0.2171
     37 H4          7.8188    3.6393   -0.0444 H         1 <0>         0.4296
     38 H5          6.1402    3.7084   -0.0274 H         1 <0>         0.4304
     39 H6          8.9832   -3.3133   -0.1235 H         1 <0>         0.2325
     40 H7         11.0121   -1.7190   -0.5626 H         1 <0>         0.1228
     41 H8         10.6860    0.0257   -0.6974 H         1 <0>         0.1187
     42 H9         10.4589    0.1737    1.7674 H         1 <0>         0.1416
     43 H10        10.7849   -1.5709    1.9022 H         1 <0>         0.1403
     44 H11        12.9984   -2.4142    1.4968 H         1 <0>         0.1381
     45 H12        12.7437   -1.8566   -0.1745 H         1 <0>         0.1459
     46 H13        15.1775   -2.1683    0.4075 H         1 <0>         0.1431
     47 H14        14.7823   -0.4975   -0.0754 H         1 <0>         0.0958
     48 H15        14.7198    0.4367    3.6596 H         1 <0>         0.1428
     49 H16        14.4790    1.2290    2.0800 H         1 <0>         0.0957
     50 H17        12.2878    0.7386    3.0654 H         1 <0>         0.1468
     51 H18        12.7438   -0.9653    3.3056 H         1 <0>         0.1354
     52 H19        18.5150   -3.6055    1.9731 H         1 <0>         0.1890
     53 H20        18.0362   -0.9614    5.3014 H         1 <0>         0.1887
     54 H21        12.6156    0.3837    0.7034 H         1 <0>         0.4263
@<TRIPOS>BOND
     1    1    5 2
     2    1    2 1
     3    1   34 1
     4    2    3 2
     5    2   35 1
     6    3    4 1
     7    3    6 1
     8    4    5 1
     9    5   36 1
    10    6   14 2
    11    6    7 1
    12    7    8 2
    13    8   13 1
    14    8    9 1
    15    9   18 1
    16    9   10 2
    17   10   11 1
    18   10   16 1
    19   11   12 2
    20   12   13 1
    21   12   15 1
    22   13   14 1
    23   15   37 1
    24   15   38 1
    25   16   17 1
    26   16   19 1
    27   17   18 2
    28   17   39 1
    29   19   20 1
    30   19   40 1
    31   19   41 1
    32   20   21 1
    33   20   42 1
    34   20   43 1
    35   21   26 1
    36   21   22 1
    37   21   54 1
    38   22   23 1
    39   22   44 1
    40   22   45 1
    41   23   24 1
    42   23   46 1
    43   23   47 1
    44   24   25 1
    45   24   27 1
    46   25   26 1
    47   25   48 1
    48   25   49 1
    49   26   50 1
    50   26   51 1
    51   27   32 ar
    52   27   28 ar
    53   28   29 ar
    54   29   30 ar
    55   29   52 1
    56   30   31 ar
    57   30   33 1
    58   31   32 ar
    59   31   53 1
