@<TRIPOS>MOLECULE
CHEMBL468256
   38    42     0     0     0
SMALL
USER_CHARGES

@<TRIPOS>ATOM
      1 C1         -0.0162    1.3451    0.0094 C.2       1 <0>        -0.2249
      2 C2          1.3225    1.7763   -0.0010 C.2       1 <0>        -0.1243
      3 C3          2.0959    0.6543   -0.0144 C.2       1 <0>        -0.0061
      4 O1          1.2782   -0.4173   -0.0124 O.3       1 <0>        -0.1487
      5 C4          0.0021   -0.0041    0.0020 C.2       1 <0>         0.0003
      6 C5          3.5677    0.6188   -0.0291 C.ar      1 <0>         0.4072
      7 C6          4.2734   -0.4010    0.6510 C.ar      1 <0>        -0.1546
      8 C7          5.6790   -0.3802    0.5989 C.ar      1 <0>         0.3613
      9 N1          6.2899    0.5856   -0.0804 N.ar      1 <0>        -0.5791
     10 C8          5.5905    1.5202   -0.7032 C.ar      1 <0>         0.6200
     11 N2          4.2647    1.5429   -0.6876 N.ar      1 <0>        -0.5510
     12 N3          6.2669    2.5076   -1.3991 N.pl3     1 <0>        -0.8044
     13 N4          6.0998   -1.4584    1.3276 N.pl3     1 <0>        -0.3778
     14 N5          4.9441   -2.0995    1.7988 N.2       1 <0>         0.0027
     15 N6          3.9043   -1.4608    1.3883 N.2       1 <0>        -0.1709
     16 C9          7.4865   -1.8648    1.5687 C.3       1 <0>         0.1818
     17 C10         7.9940   -1.2001    2.8224 C.ar      1 <0>        -0.1522
     18 C11         8.6088    0.0421    2.7427 C.ar      1 <0>        -0.0723
     19 C12         9.0801    0.6668    3.8764 C.ar      1 <0>        -0.1328
     20 C13         8.9395    0.0488    5.1149 C.ar      1 <0>         0.1062
     21 C14         8.3155   -1.2096    5.1903 C.ar      1 <0>        -0.1154
     22 C15         7.8405   -1.8224    4.0290 C.ar      1 <0>        -0.0346
     23 C16         8.3237   -1.5813    6.6072 C.2       1 <0>        -0.1991
     24 C17         8.9205   -0.5795    7.2722 C.2       1 <0>         0.0502
     25 N7          9.2951    0.4033    6.3970 N.pl3     1 <0>        -0.5958
     26 H1          9.7441    1.2272    6.6431 H         1 <0>         0.4168
     27 H2         -0.8933    1.9750    0.0252 H         1 <0>         0.1580
     28 H3          1.6703    2.7988    0.0008 H         1 <0>         0.1589
     29 H4         -0.8670   -0.6452    0.0072 H         1 <0>         0.2130
     30 H5          7.2366    2.5058   -1.4240 H         1 <0>         0.4201
     31 H6          5.7711    3.2012   -1.8618 H         1 <0>         0.4215
     32 H7          7.5325   -2.9473    1.6872 H         1 <0>         0.1129
     33 H8          8.1052   -1.5653    0.7227 H         1 <0>         0.1106
     34 H9          8.7189    0.5234    1.7822 H         1 <0>         0.1302
     35 H10         9.5575    1.6328    3.8039 H         1 <0>         0.1224
     36 H11         7.3570   -2.7866    4.0839 H         1 <0>         0.1280
     37 H12         7.9249   -2.4889    7.0356 H         1 <0>         0.1492
     38 H13         9.0814   -0.5532    8.3398 H         1 <0>         0.1728
@<TRIPOS>BOND
     1    1    5 2
     2    1    2 1
     3    1   27 1
     4    2    3 2
     5    2   28 1
     6    3    4 1
     7    3    6 1
     8    4    5 1
     9    5   29 1
    10    6   11 ar
    11    6    7 ar
    12    7   15 1
    13    7    8 ar
    14    8    9 ar
    15    8   13 1
    16    9   10 ar
    17   10   11 ar
    18   10   12 1
    19   12   30 1
    20   12   31 1
    21   13   14 1
    22   13   16 1
    23   14   15 2
    24   16   17 1
    25   16   32 1
    26   16   33 1
    27   17   22 ar
    28   17   18 ar
    29   18   19 ar
    30   18   34 1
    31   19   20 ar
    32   19   35 1
    33   20   25 1
    34   20   21 ar
    35   21   22 ar
    36   21   23 1
    37   22   36 1
    38   23   24 2
    39   23   37 1
    40   24   25 1
    41   24   38 1
    42   25   26 1
