@<TRIPOS>MOLECULE
CHEMBL508786
   46    48     0     0     0
SMALL
USER_CHARGES

@<TRIPOS>ATOM
      1 C1         -0.0174    1.5029    0.0163 C.3       1 <0>        -0.0769
      2 C2          0.0028   -0.0040    0.0066 C.2       1 <0>         0.0125
      3 C3         -1.0824   -0.8047    0.0054 C.2       1 <0>        -0.2241
      4 C4         -0.6156   -2.1324   -0.0052 C.2       1 <0>        -0.1193
      5 C5          0.7438   -2.0698   -0.0099 C.2       1 <0>         0.0169
      6 O1          1.1033   -0.7711   -0.0080 O.3       1 <0>        -0.1517
      7 C6          1.6639   -3.2232   -0.0210 C.ar      1 <0>         0.4684
      8 N1          1.1611   -4.4526   -0.0327 N.ar      1 <0>        -0.5357
      9 C7          1.9604   -5.5145   -0.0429 C.ar      1 <0>         0.4409
     10 C8          3.3391   -5.3258   -0.0413 C.ar      1 <0>        -0.3398
     11 C9          3.8316   -4.0224   -0.0289 C.ar      1 <0>         0.4878
     12 N2          2.9742   -3.0062   -0.0245 N.ar      1 <0>        -0.5777
     13 N3          5.1979   -3.7882   -0.0263 N.pl3     1 <0>        -0.5901
     14 C10         5.8432   -2.4684    0.0971 C.3       1 <0>         0.1197
     15 C11         7.2544   -2.7681    0.6612 C.3       1 <0>        -0.1339
     16 C12         7.6054   -4.0933   -0.0655 C.3       1 <0>        -0.1244
     17 C13         6.2436   -4.8154   -0.1398 C.3       1 <0>         0.1465
     18 H1          6.1543   -5.5275    0.6805 H         1 <0>         0.0908
     19 C14         6.1157   -5.5423   -1.4800 C.3       1 <0>         0.0410
     20 O2          6.3750   -4.6260   -2.5455 O.3       1 <0>        -0.3792
     21 C15         6.2809   -5.2071   -3.8477 C.3       1 <0>         0.0316
     22 N4          1.4252   -6.7987   -0.0547 N.am      1 <0>        -0.6582
     23 C16         0.0928   -6.9744    0.0471 C.2       1 <0>         0.5004
     24 O3         -0.6466   -6.0133    0.0560 O.2       1 <0>        -0.4673
     25 C17        -0.4780   -8.3654    0.1497 C.3       1 <0>        -0.1702
     26 H2          1.0052    1.8800    0.0099 H         1 <0>         0.0780
     27 H3         -0.5437    1.8648   -0.8670 H         1 <0>         0.0891
     28 H4         -0.5285    1.8537    0.9128 H         1 <0>         0.0892
     29 H5         -2.1146   -0.4871    0.0114 H         1 <0>         0.1548
     30 H6         -1.2195   -3.0278   -0.0085 H         1 <0>         0.1644
     31 H7          4.0121   -6.1705   -0.0491 H         1 <0>         0.1412
     32 H8          5.9187   -1.9902   -0.8795 H         1 <0>         0.0699
     33 H9          5.2850   -1.8363    0.7877 H         1 <0>         0.0789
     34 H10         7.9573   -1.9786    0.3952 H         1 <0>         0.0874
     35 H11         7.2211   -2.9118    1.7412 H         1 <0>         0.0753
     36 H12         7.9954   -3.8942   -1.0636 H         1 <0>         0.0922
     37 H13         8.3172   -4.6766    0.5186 H         1 <0>         0.0835
     38 H14         6.8357   -6.3596   -1.5203 H         1 <0>         0.0626
     39 H15         5.1066   -5.9417   -1.5819 H         1 <0>         0.0563
     40 H16         7.0044   -6.0174   -3.9370 H         1 <0>         0.0423
     41 H17         5.2753   -5.5996   -3.9986 H         1 <0>         0.0391
     42 H18         6.4913   -4.4475   -4.6006 H         1 <0>         0.0871
     43 H19         2.0110   -7.5675   -0.1361 H         1 <0>         0.4201
     44 H20        -0.5435   -8.6547    1.1986 H         1 <0>         0.0989
     45 H21        -1.4730   -8.3835   -0.2950 H         1 <0>         0.0997
     46 H22         0.1695   -9.0639   -0.3801 H         1 <0>         0.0823
@<TRIPOS>BOND
     1    1    2 1
     2    1   26 1
     3    1   27 1
     4    1   28 1
     5    2    6 1
     6    2    3 2
     7    3    4 1
     8    3   29 1
     9    4    5 2
    10    4   30 1
    11    5    6 1
    12    5    7 1
    13    7   12 ar
    14    7    8 ar
    15    8    9 ar
    16    9   10 ar
    17    9   22 1
    18   10   11 ar
    19   10   31 1
    20   11   12 ar
    21   11   13 1
    22   13   17 1
    23   13   14 1
    24   14   15 1
    25   14   32 1
    26   14   33 1
    27   15   16 1
    28   15   34 1
    29   15   35 1
    30   16   17 1
    31   16   36 1
    32   16   37 1
    33   17   18 1
    34   17   19 1
    35   19   20 1
    36   19   38 1
    37   19   39 1
    38   20   21 1
    39   21   40 1
    40   21   41 1
    41   21   42 1
    42   22   23 am
    43   22   43 1
    44   23   24 2
    45   23   25 1
    46   25   44 1
    47   25   45 1
    48   25   46 1
