@<TRIPOS>MOLECULE
CHEMBL55196
   76    79     0     0     0
SMALL
USER_CHARGES

@<TRIPOS>ATOM
      1 C1         -0.0187    1.5258    0.0104 C.3       1 <0>        -0.1472
      2 C2          0.0021   -0.0041    0.0020 C.3       1 <0>        -0.1385
      3 C3          0.7182   -0.4975   -1.2568 C.3       1 <0>         0.1189
      4 N1          0.7381   -1.9623   -1.2648 N.am      1 <0>        -0.5083
      5 C4         -0.2985   -2.6654   -1.8594 C.2       1 <0>         0.3302
      6 C5         -0.2549   -4.0560   -1.8531 C.2       1 <0>        -0.1471
      7 C6          0.8382   -4.7066   -1.2444 C.2       1 <0>         0.5933
      8 O1          0.8989   -5.9232   -1.2266 O.2       1 <0>        -0.5109
      9 N2          1.8163   -3.9667   -0.6824 N.am      1 <0>        -0.5484
     10 C7          1.7655   -2.6237   -0.6998 C.2       1 <0>         0.7076
     11 O2          2.6682   -1.9899   -0.1879 O.2       1 <0>        -0.5284
     12 C8          2.9540   -4.6372   -0.0482 C.3       1 <0>         0.1137
     13 C9          4.0596   -4.8546   -1.0833 C.3       1 <0>        -0.1379
     14 C10         5.2478   -5.5549   -0.4210 C.3       1 <0>        -0.1474
     15 N3         -1.3963   -4.4867   -2.5033 N.pl3     1 <0>        -0.5165
     16 C11        -2.0817   -3.3701   -2.8756 C.2       1 <0>         0.3494
     17 N4         -1.4163   -2.3002   -2.4858 N.2       1 <0>        -0.4854
     18 H1         -1.6584   -5.4067   -2.6637 H         1 <0>         0.4364
     19 C12        -3.3674   -3.3592   -3.6023 C.ar      1 <0>        -0.0770
     20 C13        -3.9806   -4.5626   -3.9587 C.ar      1 <0>        -0.0539
     21 C14        -5.1799   -4.5481   -4.6366 C.ar      1 <0>        -0.1429
     22 C15        -5.7792   -3.3387   -4.9661 C.ar      1 <0>         0.1544
     23 C16        -5.1722   -2.1396   -4.6139 C.ar      1 <0>        -0.2117
     24 C17        -3.9762   -2.1455   -3.9300 C.ar      1 <0>        -0.0184
     25 O3         -6.9610   -3.3287   -5.6347 O.3       1 <0>        -0.2844
     26 C18        -7.5217   -2.0507   -5.9420 C.3       1 <0>         0.0387
     27 C19        -8.8227   -2.2371   -6.6794 C.2       1 <0>         0.5188
     28 O4         -9.2296   -3.3543   -6.9184 O.2       1 <0>        -0.5089
     29 N5         -9.5339   -1.1622   -7.0734 N.am      1 <0>        -0.7249
     30 C20       -10.7986   -1.3434   -7.7904 C.3       1 <0>         0.1102
     31 C21       -11.3990    0.0249   -8.1193 C.3       1 <0>         0.1088
     32 N6        -12.6636   -0.1563   -8.8363 N.am      1 <0>        -0.7290
     33 C22       -13.3749    0.9186   -9.2302 C.2       1 <0>         0.5256
     34 O5        -12.9680    2.0358   -8.9913 O.2       1 <0>        -0.5191
     35 C23       -14.6758    0.7322   -9.9677 C.3       1 <0>         0.0829
     36 C24       -15.7878    0.4108   -8.9672 C.3       1 <0>        -0.0661
     37 C25       -17.0611    0.1039   -9.7126 C.2       1 <0>        -0.1545
     38 C26       -17.5201   -1.0894  -10.1629 C.2       1 <0>        -0.1478
     39 C27       -18.7304   -1.1338  -10.8291 C.2       1 <0>        -0.1579
     40 C28       -19.4224    0.0171  -11.0125 C.2       1 <0>        -0.1662
     41 S1        -18.3600    1.2164  -10.2249 S.3       1 <0>         0.0360
     42 N7        -15.0097    1.9663  -10.6912 N.3       1 <0>        -0.8254
     43 H2          1.0039    1.9031    0.0027 H         1 <0>         0.0590
     44 H3         -0.5459    1.8868   -0.8726 H         1 <0>         0.0587
     45 H4         -0.5289    1.8773    0.9072 H         1 <0>         0.0607
     46 H5          0.5293   -0.3651    0.8851 H         1 <0>         0.0681
     47 H6         -1.0205   -0.3814    0.0098 H         1 <0>         0.0681
     48 H7          0.1910   -0.1364   -2.1398 H         1 <0>         0.0987
     49 H8          1.7408   -0.1202   -1.2645 H         1 <0>         0.1006
     50 H9          3.3338   -4.0181    0.7645 H         1 <0>         0.1034
     51 H10         2.6331   -5.6005    0.3484 H         1 <0>         0.1017
     52 H11         3.6798   -5.4738   -1.8960 H         1 <0>         0.0673
     53 H12         4.3805   -3.8914   -1.4798 H         1 <0>         0.0694
     54 H13         4.9269   -6.5182   -0.0244 H         1 <0>         0.0589
     55 H14         6.0354   -5.7098   -1.1584 H         1 <0>         0.0615
     56 H15         5.6276   -4.9357    0.3917 H         1 <0>         0.0598
     57 H16        -3.5150   -5.5030   -3.7035 H         1 <0>         0.1319
     58 H17        -5.6547   -5.4781   -4.9125 H         1 <0>         0.1439
     59 H18        -5.6409   -1.2016   -4.8725 H         1 <0>         0.1391
     60 H19        -3.5076   -1.2131   -3.6520 H         1 <0>         0.1463
     61 H20        -7.7034   -1.5019   -5.0178 H         1 <0>         0.1002
     62 H21        -6.8269   -1.4898   -6.5670 H         1 <0>         0.1004
     63 H22        -9.2085   -0.2686   -6.8823 H         1 <0>         0.4066
     64 H23       -10.6170   -1.8921   -8.7145 H         1 <0>         0.0795
     65 H24       -11.4935   -1.9043   -7.1653 H         1 <0>         0.0790
     66 H25       -11.5806    0.5736   -7.1952 H         1 <0>         0.0774
     67 H26       -10.7041    0.5858   -8.7444 H         1 <0>         0.0783
     68 H27       -12.9891   -1.0499   -9.0274 H         1 <0>         0.4046
     69 H28       -14.5768   -0.0894  -10.6772 H         1 <0>         0.1087
     70 H29       -15.4996   -0.4535   -8.3689 H         1 <0>         0.0966
     71 H30       -15.9473    1.2683   -8.3134 H         1 <0>         0.0878
     72 H31       -16.9486   -1.9918  -10.0037 H         1 <0>         0.1345
     73 H32       -19.1186   -2.0716  -11.1983 H         1 <0>         0.1362
     74 H33       -20.3721    0.1688  -11.5040 H         1 <0>         0.1874
     75 H34       -15.8443    1.8460  -11.2454 H         1 <0>         0.3516
     76 H35       -15.1070    2.7434  -10.0550 H         1 <0>         0.3531
@<TRIPOS>BOND
     1    1    2 1
     2    1   43 1
     3    1   44 1
     4    1   45 1
     5    2    3 1
     6    2   46 1
     7    2   47 1
     8    3   48 1
     9    3   49 1
    10    3    4 1
    11    4    5 1
    12    4   10 am
    13    5   17 1
    14    5    6 2
    15    6    7 1
    16    6   15 1
    17    7    9 am
    18    7    8 2
    19    9   10 am
    20    9   12 1
    21   10   11 2
    22   12   13 1
    23   12   50 1
    24   12   51 1
    25   13   14 1
    26   13   52 1
    27   13   53 1
    28   14   54 1
    29   14   55 1
    30   14   56 1
    31   15   18 1
    32   15   16 1
    33   16   19 1
    34   16   17 2
    35   19   24 ar
    36   19   20 ar
    37   20   21 ar
    38   20   57 1
    39   21   22 ar
    40   21   58 1
    41   22   23 ar
    42   22   25 1
    43   23   24 ar
    44   23   59 1
    45   24   60 1
    46   25   26 1
    47   26   27 1
    48   26   61 1
    49   26   62 1
    50   27   28 2
    51   27   29 am
    52   29   30 1
    53   29   63 1
    54   30   31 1
    55   30   64 1
    56   30   65 1
    57   31   32 1
    58   31   66 1
    59   31   67 1
    60   32   33 am
    61   32   68 1
    62   33   34 2
    63   33   35 1
    64   35   36 1
    65   35   42 1
    66   35   69 1
    67   36   37 1
    68   36   70 1
    69   36   71 1
    70   37   41 1
    71   37   38 2
    72   38   39 1
    73   38   72 1
    74   39   40 2
    75   39   73 1
    76   40   41 1
    77   40   74 1
    78   42   75 1
    79   42   76 1
