@<TRIPOS>MOLECULE
CHEMBL401321
   31    33     0     0     0
SMALL
USER_CHARGES

@<TRIPOS>ATOM
      1 C1         -2.3523    1.4711    0.0299 C.3       1 <0>        -0.1719
      2 C2         -2.3320   -0.0357    0.0198 C.2       1 <0>         0.5022
      3 O1         -3.3739   -0.6562    0.0212 O.2       1 <0>        -0.4662
      4 N1         -1.1558   -0.6938    0.0094 N.am      1 <0>        -0.6545
      5 C3         -1.1342   -2.0812    0.1067 C.ar      1 <0>         0.4377
      6 C4          0.0772   -2.7632    0.2027 C.ar      1 <0>        -0.2656
      7 C5          0.0520   -4.1506    0.2981 C.ar      1 <0>         0.4523
      8 N2         -1.1183   -4.7787    0.2949 N.ar      1 <0>        -0.5533
      9 C6         -2.2548   -4.0982    0.2020 C.ar      1 <0>         0.4644
     10 N3         -2.2682   -2.7727    0.1149 N.ar      1 <0>        -0.5068
     11 C7         -3.5349   -4.8321    0.2012 C.2       1 <0>         0.0111
     12 C8         -4.7738   -4.2771    0.1073 C.2       1 <0>        -0.1149
     13 C9         -5.6973   -5.3386    0.1453 C.2       1 <0>        -0.2250
     14 C10        -4.9853   -6.4783    0.2593 C.2       1 <0>        -0.0055
     15 O2         -3.6802   -6.1691    0.2873 O.3       1 <0>        -0.1541
     16 N4          1.2422   -4.8740    0.3957 N.pl3     1 <0>        -0.3327
     17 C11         1.3526   -6.2253    0.4885 C.2       1 <0>         0.0840
     18 C12         2.6696   -6.5240    0.5629 C.2       1 <0>        -0.2574
     19 C13         3.3882   -5.3236    0.5145 C.2       1 <0>         0.0754
     20 N5          2.5360   -4.3370    0.4093 N.2       1 <0>        -0.2832
     21 H1         -3.3847    1.8205    0.0376 H         1 <0>         0.1011
     22 H2         -1.8388    1.8355    0.9197 H         1 <0>         0.0945
     23 H3         -1.8480    1.8472   -0.8602 H         1 <0>         0.0943
     24 H4         -0.3244   -0.1999   -0.0661 H         1 <0>         0.4258
     25 H5          1.0145   -2.2266    0.2026 H         1 <0>         0.1641
     26 H6         -5.0040   -3.2255    0.0208 H         1 <0>         0.1666
     27 H7         -6.7729   -5.2560    0.0931 H         1 <0>         0.1581
     28 H8         -5.3974   -7.4751    0.3146 H         1 <0>         0.2125
     29 H9          0.5365   -6.9326    0.5010 H         1 <0>         0.1866
     30 H10         3.0924   -7.5144    0.6452 H         1 <0>         0.1619
     31 H11         4.4633   -5.2287    0.5531 H         1 <0>         0.1986
@<TRIPOS>BOND
     1    1    2 1
     2    1   21 1
     3    1   22 1
     4    1   23 1
     5    2    3 2
     6    2    4 am
     7    4    5 1
     8    4   24 1
     9    5   10 ar
    10    5    6 ar
    11    6    7 ar
    12    6   25 1
    13    7    8 ar
    14    7   16 1
    15    8    9 ar
    16    9   10 ar
    17    9   11 1
    18   11   15 1
    19   11   12 2
    20   12   13 1
    21   12   26 1
    22   13   14 2
    23   13   27 1
    24   14   15 1
    25   14   28 1
    26   16   20 1
    27   16   17 1
    28   17   18 2
    29   17   29 1
    30   18   19 1
    31   18   30 1
    32   19   20 2
    33   19   31 1
