@<TRIPOS>MOLECULE
CHEMBL8865
   59    62     0     0     0
SMALL
USER_CHARGES

@<TRIPOS>ATOM
      1 C1         -0.0187    1.5258    0.0104 C.3       1 <0>        -0.1478
      2 C2          0.0021   -0.0041    0.0020 C.3       1 <0>        -0.1382
      3 C3          0.7421   -0.5109    1.2415 C.3       1 <0>         0.1175
      4 N1          0.7619   -1.9757    1.2335 N.am      1 <0>        -0.5082
      5 C4          1.8058   -2.6504    0.6192 C.2       1 <0>         0.3291
      6 C5          1.8004   -4.0416    0.6259 C.2       1 <0>        -0.1315
      7 C6          0.7363   -4.7219    1.2550 C.2       1 <0>         0.5931
      8 O1          0.7094   -5.9396    1.2744 O.2       1 <0>        -0.5053
      9 N2         -0.2508   -4.0085    1.8353 N.am      1 <0>        -0.5474
     10 C7         -0.2306   -2.6645    1.8273 C.2       1 <0>         0.7076
     11 O2         -1.1350   -2.0553    2.3653 O.2       1 <0>        -0.5233
     12 C8         -1.3583   -4.7093    2.4900 C.3       1 <0>         0.1131
     13 C9         -1.0111   -4.9501    3.9605 C.3       1 <0>        -0.1382
     14 C10        -2.1677   -5.6820    4.6443 C.3       1 <0>        -0.1476
     15 N3          2.9398   -4.4408   -0.0455 N.pl3     1 <0>        -0.5069
     16 C11         3.5873   -3.3067   -0.4304 C.2       1 <0>         0.3169
     17 N4          2.9013   -2.2553   -0.0282 N.2       1 <0>        -0.4688
     18 H1          3.2241   -5.3534   -0.2104 H         1 <0>         0.4388
     19 C12         4.8602   -3.2615   -1.1807 C.ar      1 <0>         0.0365
     20 C13         5.4942   -4.4466   -1.5577 C.ar      1 <0>        -0.1211
     21 C14         6.6816   -4.3973   -2.2582 C.ar      1 <0>        -0.0048
     22 C15         7.2444   -3.1768   -2.5868 C.ar      1 <0>        -0.6916
     23 C16         6.6212   -1.9985   -2.2162 C.ar      1 <0>        -0.0161
     24 C17         5.4305   -2.0336   -1.5204 C.ar      1 <0>        -0.0864
     25 S1          8.7619   -3.1230   -3.4807 S.o2      1 <0>         2.6737
     26 O3          9.3598   -1.8670   -3.1905 O.2       1 <0>        -0.9391
     27 O4          9.4227   -4.3565   -3.2337 O.2       1 <0>        -0.9100
     28 O5          8.4114   -3.1061   -4.9617 O.3       1 <0>        -0.6553
     29 C18         7.9413   -1.9105   -5.4048 C.ar      1 <0>         0.1158
     30 C19         6.5810   -1.6408   -5.3649 C.ar      1 <0>        -0.1231
     31 C20         6.1056   -0.4245   -5.8155 C.ar      1 <0>        -0.0355
     32 C21         6.9843    0.5236   -6.3061 C.ar      1 <0>        -0.0337
     33 C22         8.3404    0.2571   -6.3474 C.ar      1 <0>        -0.0336
     34 C23         8.8214   -0.9554   -5.8927 C.ar      1 <0>        -0.0912
     35 N5          6.4723    1.8259   -6.7883 N.pl3     1 <0>         0.0284
     36 O6          5.2867    2.0599   -6.7529 O.2       1 <0>        -0.1447
     37 O7          7.2397    2.6557   -7.2174 O.3       1 <0>        -0.1428
     38 H2          1.0039    1.9031    0.0027 H         1 <0>         0.0591
     39 H3         -0.5459    1.8868   -0.8726 H         1 <0>         0.0620
     40 H4         -0.5289    1.8773    0.9072 H         1 <0>         0.0595
     41 H5         -1.0205   -0.3814    0.0098 H         1 <0>         0.0687
     42 H6          0.5123   -0.3556   -0.8948 H         1 <0>         0.0676
     43 H7          1.7647   -0.1336    1.2338 H         1 <0>         0.0993
     44 H8          0.2319   -0.1594    2.1383 H         1 <0>         0.1024
     45 H9         -2.2615   -4.1026    2.4246 H         1 <0>         0.1049
     46 H10        -1.5263   -5.6657    1.9950 H         1 <0>         0.1027
     47 H11        -0.1079   -5.5568    4.0260 H         1 <0>         0.0673
     48 H12        -0.8431   -3.9937    4.4555 H         1 <0>         0.0699
     49 H13        -3.0709   -5.0754    4.5789 H         1 <0>         0.0604
     50 H14        -2.3357   -6.6385    4.1493 H         1 <0>         0.0592
     51 H15        -1.9204   -5.8536    5.6919 H         1 <0>         0.0621
     52 H16         5.0562   -5.3999   -1.3012 H         1 <0>         0.1383
     53 H17         7.1731   -5.3135   -2.5505 H         1 <0>         0.1549
     54 H18         7.0658   -1.0491   -2.4757 H         1 <0>         0.1508
     55 H19         4.9429   -1.1131   -1.2352 H         1 <0>         0.1564
     56 H20         5.8943   -2.3812   -4.9821 H         1 <0>         0.1642
     57 H21         5.0468   -0.2142   -5.7849 H         1 <0>         0.1713
     58 H22         9.0247    0.9992   -6.7314 H         1 <0>         0.1729
     59 H23         9.8811   -1.1615   -5.9210 H         1 <0>         0.1678
@<TRIPOS>BOND
     1    1    2 1
     2    1   38 1
     3    1   39 1
     4    1   40 1
     5    2    3 1
     6    2   41 1
     7    2   42 1
     8    3   43 1
     9    3   44 1
    10    3    4 1
    11    4    5 1
    12    4   10 am
    13    5   17 1
    14    5    6 2
    15    6    7 1
    16    6   15 1
    17    7    9 am
    18    7    8 2
    19    9   10 am
    20    9   12 1
    21   10   11 2
    22   12   13 1
    23   12   45 1
    24   12   46 1
    25   13   14 1
    26   13   47 1
    27   13   48 1
    28   14   49 1
    29   14   50 1
    30   14   51 1
    31   15   18 1
    32   15   16 1
    33   16   19 1
    34   16   17 2
    35   19   24 ar
    36   19   20 ar
    37   20   21 ar
    38   20   52 1
    39   21   22 ar
    40   21   53 1
    41   22   23 ar
    42   22   25 1
    43   23   24 ar
    44   23   54 1
    45   24   55 1
    46   25   26 2
    47   25   27 2
    48   25   28 1
    49   28   29 1
    50   29   34 ar
    51   29   30 ar
    52   30   31 ar
    53   30   56 1
    54   31   32 ar
    55   31   57 1
    56   32   33 ar
    57   32   35 1
    58   33   34 ar
    59   33   58 1
    60   34   59 1
    61   35   36 2
    62   35   37 1
