@<TRIPOS>MOLECULE
CHEMBL1099028
   51    55     0     0     0
SMALL
USER_CHARGES

@<TRIPOS>ATOM
      1 C1         -0.0167    1.3793    0.0096 C.ar      1 <0>        -0.0928
      2 C2          1.1685    2.0929    0.0021 C.ar      1 <0>        -0.1340
      3 C3          2.3774    1.4279   -0.0130 C.ar      1 <0>        -0.0661
      4 C4          2.4029    0.0333   -0.0207 C.ar      1 <0>        -0.0812
      5 C5          1.2046   -0.6805   -0.0131 C.ar      1 <0>        -0.0595
      6 C6          0.0021   -0.0041    0.0020 C.ar      1 <0>        -0.1270
      7 C7          3.6972   -0.6866   -0.0375 C.ar      1 <0>         0.3423
      8 C8          3.8485   -1.9053    0.6416 C.ar      1 <0>        -0.3478
      9 C9          5.0995   -2.5526    0.5963 C.ar      1 <0>         0.3069
     10 N1          6.0850   -1.9878   -0.0854 N.ar      1 <0>        -0.5633
     11 C10         5.9016   -0.8324   -0.7162 C.ar      1 <0>         0.6027
     12 N2          4.7422   -0.1938   -0.7026 N.ar      1 <0>        -0.5701
     13 N3          6.9560   -0.2811   -1.4137 N.pl3     1 <0>        -0.8044
     14 C11         5.0091   -3.8087    1.3828 C.ar      1 <0>        -0.0375
     15 C12         5.9398   -4.8012    1.6568 C.ar      1 <0>        -0.0609
     16 C13         5.5832   -5.8911    2.4363 C.ar      1 <0>        -0.0639
     17 C14         4.3040   -5.9981    2.9448 C.ar      1 <0>        -0.0785
     18 C15         3.3631   -5.0152    2.6796 C.ar      1 <0>        -0.0500
     19 C16         3.7079   -3.9189    1.9009 C.ar      1 <0>        -0.1421
     20 C17         2.9384   -2.7304    1.4536 C.2       1 <0>         0.4632
     21 O1          1.7764   -2.4848    1.7094 O.2       1 <0>        -0.4120
     22 C18         6.5980   -6.9658    2.7299 C.3       1 <0>         0.1070
     23 N4          7.3232   -6.6308    3.9628 N.3       1 <0>        -0.5244
     24 N5          8.3131   -7.6482    4.2778 N.3       1 <0>        -0.3837
     25 C19         7.9830   -8.3322    5.5344 C.3       1 <0>         0.0742
     26 C20         8.9001   -9.5483    5.7083 C.3       1 <0>        -0.1656
     27 C21        10.3354   -9.0808    5.5873 C.2       1 <0>         0.3576
     28 O2         11.1654   -9.3960    6.4059 O.2       1 <0>        -0.4527
     29 C22        10.6952   -8.2051    4.4054 C.3       1 <0>        -0.1620
     30 C23         9.6641   -7.0744    4.3143 C.3       1 <0>         0.0371
     31 H1         -0.9604    1.9042    0.0260 H         1 <0>         0.1266
     32 H2          1.1475    3.1726    0.0078 H         1 <0>         0.1282
     33 H3          3.3020    1.9860   -0.0192 H         1 <0>         0.1291
     34 H4          1.2180   -1.7604   -0.0194 H         1 <0>         0.1349
     35 H5         -0.9264   -0.5556    0.0083 H         1 <0>         0.1291
     36 H6          7.8124   -0.7360   -1.4376 H         1 <0>         0.4194
     37 H7          6.8412    0.5615   -1.8803 H         1 <0>         0.4210
     38 H8          6.9422   -4.7247    1.2623 H         1 <0>         0.1365
     39 H9          4.0354   -6.8506    3.5509 H         1 <0>         0.1427
     40 H10         2.3631   -5.1023    3.0782 H         1 <0>         0.1424
     41 H11         6.0891   -7.9214    2.8559 H         1 <0>         0.0949
     42 H12         7.3029   -7.0360    1.9014 H         1 <0>         0.0539
     43 H13         7.7505   -5.7194    3.8946 H         1 <0>         0.3388
     44 H14         8.1259   -7.6468    6.3698 H         1 <0>         0.0447
     45 H15         6.9442   -8.6612    5.5073 H         1 <0>         0.0952
     46 H16         8.7396   -9.9922    6.6907 H         1 <0>         0.0988
     47 H17         8.6865  -10.2837    4.9326 H         1 <0>         0.1091
     48 H18        11.6904   -7.7843    4.5491 H         1 <0>         0.0970
     49 H19        10.6742   -8.7964    3.4900 H         1 <0>         0.1094
     50 H20         9.8380   -6.4959    3.4070 H         1 <0>         0.0876
     51 H21         9.7596   -6.4244    5.1841 H         1 <0>         0.0493
@<TRIPOS>BOND
     1    1    6 ar
     2    1    2 ar
     3    1   31 1
     4    2    3 ar
     5    2   32 1
     6    3    4 ar
     7    3   33 1
     8    4    5 ar
     9    4    7 1
    10    5    6 ar
    11    5   34 1
    12    6   35 1
    13    7   12 ar
    14    7    8 ar
    15    8   20 1
    16    8    9 ar
    17    9   10 ar
    18    9   14 1
    19   10   11 ar
    20   11   12 ar
    21   11   13 1
    22   13   36 1
    23   13   37 1
    24   14   19 ar
    25   14   15 ar
    26   15   16 ar
    27   15   38 1
    28   16   17 ar
    29   16   22 1
    30   17   18 ar
    31   17   39 1
    32   18   19 ar
    33   18   40 1
    34   19   20 1
    35   20   21 2
    36   22   23 1
    37   22   41 1
    38   22   42 1
    39   23   24 1
    40   23   43 1
    41   24   30 1
    42   24   25 1
    43   25   26 1
    44   25   44 1
    45   25   45 1
    46   26   27 1
    47   26   46 1
    48   26   47 1
    49   27   28 2
    50   27   29 1
    51   29   30 1
    52   29   48 1
    53   29   49 1
    54   30   50 1
    55   30   51 1
