@<TRIPOS>MOLECULE
CHEMBL245645
   38    42     0     0     0
SMALL
USER_CHARGES

@<TRIPOS>ATOM
      1 C1         -0.0167    1.3781    0.0096 C.ar      1 <0>        -0.1065
      2 C2          1.1709    2.0855    0.0021 C.ar      1 <0>        -0.1224
      3 C3          2.3773    1.4107   -0.0130 C.ar      1 <0>        -0.0973
      4 C4          2.3960    0.0285   -0.0201 C.ar      1 <0>        -0.1246
      5 C5          1.2084   -0.6789   -0.0117 C.ar      1 <0>        -0.0892
      6 C6          0.0021   -0.0041    0.0020 C.ar      1 <0>        -0.1233
      7 C7          3.7112   -0.7071   -0.0376 C.3       1 <0>         0.1523
      8 N1          4.1518   -0.9524    1.3379 N.pl3     1 <0>        -0.4471
      9 C8          5.0027   -0.1727    2.0633 C.2       1 <0>         0.2312
     10 N2          5.1734   -0.6899    3.2465 N.2       1 <0>        -0.4328
     11 C9          4.4467   -1.8249    3.3496 C.2       1 <0>        -0.0262
     12 C10         3.7790   -2.0060    2.1342 C.2       1 <0>         0.2919
     13 N3          2.9764   -3.0635    1.9668 N.2       1 <0>        -0.5427
     14 C11         2.7835   -3.9516    2.9118 C.2       1 <0>         0.6695
     15 N4          3.3866   -3.8608    4.1314 N.pl3     1 <0>        -0.3627
     16 C12         4.2356   -2.8179    4.4000 C.2       1 <0>         0.3980
     17 N5          4.6798   -2.9655    5.6327 N.2       1 <0>        -0.5004
     18 C13         4.1603   -4.0770    6.1673 C.2       1 <0>         0.3449
     19 N6          3.3570   -4.6486    5.2891 N.2       1 <0>        -0.2958
     20 C14         4.4260   -4.5740    7.5337 C.2       1 <0>         0.0441
     21 C15         3.9093   -5.7034    8.0863 C.2       1 <0>        -0.1381
     22 C16         4.4263   -5.7885    9.3943 C.2       1 <0>        -0.2200
     23 C17         5.2248   -4.7179    9.5735 C.2       1 <0>        -0.0046
     24 O1          5.2268   -3.9895    8.4455 O.3       1 <0>        -0.1516
     25 N7          1.9422   -5.0129    2.6643 N.pl3     1 <0>        -0.8073
     26 H1         -0.9591    1.9053    0.0259 H         1 <0>         0.1245
     27 H2          1.1563    3.1654    0.0076 H         1 <0>         0.1262
     28 H3          3.3051    1.9634   -0.0196 H         1 <0>         0.1254
     29 H4          1.2231   -1.7588   -0.0176 H         1 <0>         0.1275
     30 H5         -0.9258   -0.5567    0.0082 H         1 <0>         0.1245
     31 H6          3.5884   -1.6586   -0.5549 H         1 <0>         0.1062
     32 H7          4.4573   -0.1052   -0.5563 H         1 <0>         0.1123
     33 H8          5.4660    0.7366    1.7099 H         1 <0>         0.2269
     34 H9          3.2329   -6.4005    7.6141 H         1 <0>         0.1601
     35 H10         4.2210   -6.5646   10.1167 H         1 <0>         0.1594
     36 H11         5.7753   -4.4866   10.4734 H         1 <0>         0.2140
     37 H12         1.5041   -5.0938    1.8026 H         1 <0>         0.4285
     38 H13         1.7874   -5.6797    3.3515 H         1 <0>         0.4252
@<TRIPOS>BOND
     1    1    6 ar
     2    1    2 ar
     3    1   26 1
     4    2    3 ar
     5    2   27 1
     6    3    4 ar
     7    3   28 1
     8    4    5 ar
     9    4    7 1
    10    5    6 ar
    11    5   29 1
    12    6   30 1
    13    7    8 1
    14    7   31 1
    15    7   32 1
    16    8   12 1
    17    8    9 1
    18    9   10 2
    19    9   33 1
    20   10   11 1
    21   11   16 1
    22   11   12 2
    23   12   13 1
    24   13   14 2
    25   14   15 1
    26   14   25 1
    27   15   19 1
    28   15   16 1
    29   16   17 2
    30   17   18 1
    31   18   19 2
    32   18   20 1
    33   20   24 1
    34   20   21 2
    35   21   22 1
    36   21   34 1
    37   22   23 2
    38   22   35 1
    39   23   24 1
    40   23   36 1
    41   25   37 1
    42   25   38 1
