@<TRIPOS>MOLECULE
CHEMBL59084
   66    68     0     0     0
SMALL
USER_CHARGES

@<TRIPOS>ATOM
      1 C1         -0.0187    1.5258    0.0104 C.3       1 <0>        -0.1472
      2 C2          0.0021   -0.0041    0.0020 C.3       1 <0>        -0.1385
      3 C3         -1.4333   -0.5336    0.0129 C.3       1 <0>         0.1190
      4 N1         -1.4134   -1.9985    0.0048 N.am      1 <0>        -0.5089
      5 C4         -1.3926   -2.6971    1.2022 C.2       1 <0>         0.3304
      6 C5         -1.3740   -4.0878    1.1662 C.2       1 <0>        -0.1423
      7 C6         -1.3769   -4.7431   -0.0825 C.2       1 <0>         0.5924
      8 O1         -1.3613   -5.9599   -0.1397 O.2       1 <0>        -0.5083
      9 N2         -1.3976   -4.0074   -1.2132 N.am      1 <0>        -0.5477
     10 C7         -1.4210   -2.6643   -1.1652 C.2       1 <0>         0.7071
     11 O2         -1.4448   -2.0346   -2.2051 O.2       1 <0>        -0.5250
     12 C8         -1.4003   -4.6827   -2.5132 C.3       1 <0>         0.1129
     13 C9         -2.8435   -4.9380   -2.9524 C.3       1 <0>        -0.1375
     14 C10        -2.8462   -5.6433   -4.3101 C.3       1 <0>        -0.1480
     15 N3         -1.3557   -4.5135    2.4813 N.pl3     1 <0>        -0.5147
     16 C11        -1.3636   -3.3941    3.2571 C.2       1 <0>         0.3404
     17 N4         -1.3855   -2.3271    2.4822 N.2       1 <0>        -0.4838
     18 H1         -1.3406   -5.4324    2.7917 H         1 <0>         0.4367
     19 C12        -1.3506   -3.3777    4.7338 C.ar      1 <0>        -0.0661
     20 C13        -1.3225   -4.5782    5.4473 C.ar      1 <0>        -0.0542
     21 C14        -1.3105   -4.5586    6.8248 C.ar      1 <0>        -0.1389
     22 C15        -1.3267   -3.3469    7.5043 C.ar      1 <0>         0.1460
     23 C16        -1.3551   -2.1506    6.7984 C.ar      1 <0>        -0.2099
     24 C17        -1.3606   -2.1615    5.4207 C.ar      1 <0>        -0.0206
     25 O3         -1.3153   -3.3318    8.8621 O.3       1 <0>        -0.2868
     26 C18        -1.3331   -2.0517    9.4968 C.3       1 <0>         0.0401
     27 C19        -1.3169   -2.2325   10.9929 C.2       1 <0>         0.5236
     28 O4         -1.2924   -3.3478   11.4687 O.2       1 <0>        -0.4958
     29 N5         -1.3296   -1.1548   11.8021 N.am      1 <0>        -0.7320
     30 C20        -1.3138   -1.3305   13.2564 C.3       1 <0>         0.0960
     31 C21        -1.3329    0.0401   13.9360 C.3       1 <0>        -0.0229
     32 N6         -1.3171   -0.1361   15.3943 N.4       1 <0>        -0.3832
     33 C22        -0.0468   -0.7530   15.7992 C.3       1 <0>        -0.0563
     34 C23        -1.4560    1.1724   16.0473 C.3       1 <0>        -0.0468
     35 H2          1.0039    1.9031    0.0027 H         1 <0>         0.0610
     36 H3         -0.5459    1.8868   -0.8726 H         1 <0>         0.0600
     37 H4         -0.5289    1.8773    0.9072 H         1 <0>         0.0576
     38 H5          0.5123   -0.3556   -0.8948 H         1 <0>         0.0691
     39 H6          0.5293   -0.3651    0.8851 H         1 <0>         0.0671
     40 H7         -1.9435   -0.1821    0.9097 H         1 <0>         0.0979
     41 H8         -1.9605   -0.1726   -0.8702 H         1 <0>         0.1015
     42 H9         -0.9020   -4.0534   -3.2506 H         1 <0>         0.1044
     43 H10        -0.8724   -5.6328   -2.4302 H         1 <0>         0.1024
     44 H11        -3.3418   -5.5673   -2.2150 H         1 <0>         0.0670
     45 H12        -3.3714   -3.9880   -3.0355 H         1 <0>         0.0694
     46 H13        -3.8744   -5.8251   -4.6230 H         1 <0>         0.0622
     47 H14        -2.3479   -5.0140   -5.0475 H         1 <0>         0.0604
     48 H15        -2.3183   -6.5933   -4.2271 H         1 <0>         0.0593
     49 H16        -1.3106   -5.5206    4.9198 H         1 <0>         0.1343
     50 H17        -1.2888   -5.4864    7.3772 H         1 <0>         0.1444
     51 H18        -1.3684   -1.2108    7.3303 H         1 <0>         0.1367
     52 H19        -1.3774   -1.2310    4.8727 H         1 <0>         0.1477
     53 H20        -0.4560   -1.4818    9.1902 H         1 <0>         0.1025
     54 H21        -2.2356   -1.5143    9.2056 H         1 <0>         0.1026
     55 H22        -1.3491   -0.2627   11.4216 H         1 <0>         0.4107
     56 H23        -2.1909   -1.9004   13.5631 H         1 <0>         0.0922
     57 H24        -0.4113   -1.8679   13.5477 H         1 <0>         0.0925
     58 H25        -0.4558    0.6100   13.6294 H         1 <0>         0.1386
     59 H26        -2.2354    0.5775   13.6448 H         1 <0>         0.1397
     60 H27         0.7808   -0.1089   15.5021 H         1 <0>         0.1252
     61 H28        -0.0351   -0.8837   16.8813 H         1 <0>         0.1294
     62 H29         0.0563   -1.7239   15.3148 H         1 <0>         0.1262
     63 H30        -2.3986    1.6301   15.7468 H         1 <0>         0.1254
     64 H31        -1.4443    1.0417   17.1293 H         1 <0>         0.1286
     65 H32        -0.6284    1.8165   15.7501 H         1 <0>         0.1240
     66 H33        -2.0832   -0.7323   15.6694 H         1 <0>         0.4308
@<TRIPOS>BOND
     1    1    2 1
     2    1   35 1
     3    1   36 1
     4    1   37 1
     5    2    3 1
     6    2   38 1
     7    2   39 1
     8    3   40 1
     9    3   41 1
    10    3    4 1
    11    4    5 1
    12    4   10 am
    13    5   17 1
    14    5    6 2
    15    6    7 1
    16    6   15 1
    17    7    9 am
    18    7    8 2
    19    9   10 am
    20    9   12 1
    21   10   11 2
    22   12   13 1
    23   12   42 1
    24   12   43 1
    25   13   14 1
    26   13   44 1
    27   13   45 1
    28   14   46 1
    29   14   47 1
    30   14   48 1
    31   15   18 1
    32   15   16 1
    33   16   19 1
    34   16   17 2
    35   19   24 ar
    36   19   20 ar
    37   20   21 ar
    38   20   49 1
    39   21   22 ar
    40   21   50 1
    41   22   23 ar
    42   22   25 1
    43   23   24 ar
    44   23   51 1
    45   24   52 1
    46   25   26 1
    47   26   27 1
    48   26   53 1
    49   26   54 1
    50   27   28 2
    51   27   29 am
    52   29   30 1
    53   29   55 1
    54   30   31 1
    55   30   56 1
    56   30   57 1
    57   31   32 1
    58   31   58 1
    59   31   59 1
    60   32   33 1
    61   32   34 1
    62   32   66 1
    63   33   60 1
    64   33   61 1
    65   33   62 1
    66   34   63 1
    67   34   64 1
    68   34   65 1
