@<TRIPOS>MOLECULE
CHEMBL604591
   81    85     0     0     0
SMALL
USER_CHARGES

@<TRIPOS>ATOM
      1 C1         -0.2780    1.4195   -0.2405 C.3       1 <0>        -0.1563
      2 C2         -0.1398   -0.1027   -0.1731 C.3       1 <0>        -0.1145
      3 C3          0.7762   -0.5821   -1.3010 C.3       1 <0>        -0.1048
      4 C4          2.1883   -0.0372   -1.0776 C.3       1 <0>        -0.1236
      5 C5          2.7215   -0.5378    0.2662 C.3       1 <0>        -0.1556
      6 C6          0.8154   -2.1116   -1.3109 C.3       1 <0>         0.1319
      7 N1          1.6014   -2.5725   -2.4580 N.pl3     1 <0>        -0.6873
      8 C7          1.8692   -3.9206   -2.6163 C.ar      1 <0>         0.5439
      9 C8          2.6269   -4.3788   -3.7084 C.ar      1 <0>        -0.1476
     10 C9          2.8682   -5.7578   -3.8195 C.ar      1 <0>         0.3521
     11 N2          2.3760   -6.5781   -2.8962 N.ar      1 <0>        -0.6071
     12 C10         1.6674   -6.1048   -1.8843 C.ar      1 <0>         0.6278
     13 N3          1.4207   -4.8091   -1.7370 N.ar      1 <0>        -0.6259
     14 N4          1.1715   -6.9914   -0.9425 N.pl3     1 <0>        -0.7031
     15 C11         0.3837   -6.4942    0.1881 C.3       1 <0>         0.1475
     16 C12        -0.0390   -7.6698    1.0714 C.3       1 <0>        -0.0779
     17 C13        -0.8494   -7.1583    2.2344 C.2       1 <0>         0.0393
     18 C14        -0.3567   -6.6840    3.3946 C.2       1 <0>         0.0341
     19 N5         -1.4307   -6.3293    4.1654 N.pl3     1 <0>        -0.4047
     20 C15        -2.5432   -6.5994    3.4491 C.cat     1 <0>         0.2918
     21 N6         -2.1877   -7.0902    2.2933 N.pl3     1 <0>        -0.4745
     22 C16        -1.3824   -5.7625    5.5155 C.3       1 <0>         0.0878
     23 C17        -1.3281   -4.2361    5.4262 C.3       1 <0>        -0.1798
     24 N7          3.6184   -5.9207   -4.9566 N.pl3     1 <0>        -0.4679
     25 C18         3.8137   -4.6836   -5.4981 C.2       1 <0>         0.2324
     26 N8          3.2314   -3.7809   -4.7644 N.2       1 <0>        -0.4438
     27 C19         4.1181   -7.1898   -5.4911 C.3       1 <0>         0.1512
     28 H1          3.7966   -8.0148   -4.8555 H         1 <0>         0.1329
     29 C20         5.6580   -7.1575   -5.5765 C.3       1 <0>        -0.1400
     30 C21         5.9825   -7.9300   -6.8793 C.3       1 <0>         0.1755
     31 H2          5.9437   -9.0061   -6.7101 H         1 <0>         0.1283
     32 C22         4.8471   -7.4831   -7.8334 C.3       1 <0>         0.0614
     33 H3          5.0731   -6.5079   -8.2648 H         1 <0>         0.0839
     34 C23         3.6014   -7.3974   -6.9256 C.3       1 <0>         0.0667
     35 H4          2.9790   -6.5539   -7.2240 H         1 <0>         0.0806
     36 O1          2.8522   -8.6116   -7.0052 O.3       1 <0>        -0.5398
     37 O2          4.6508   -8.4518   -8.8654 O.3       1 <0>        -0.5386
     38 N9          7.2922   -7.5358   -7.4041 N.pl3     1 <0>        -0.3638
     39 C24         7.5428   -6.4717   -8.1954 C.2       1 <0>         0.0727
     40 C25         8.8701   -6.4569   -8.4585 C.2       1 <0>        -0.2369
     41 C26         9.4504   -7.5493   -7.8056 C.2       1 <0>         0.0689
     42 N10         8.5064   -8.1933   -7.1683 N.2       1 <0>        -0.2874
     43 C27         9.5948   -5.4431   -9.3058 C.3       1 <0>         0.1533
     44 O3         10.0315   -4.3595   -8.4830 O.3       1 <0>        -0.5731
     45 H5          0.7044    1.8788   -0.1307 H         1 <0>         0.0596
     46 H6         -0.7064    1.7032   -1.2018 H         1 <0>         0.0560
     47 H7         -0.9306    1.7610    0.5630 H         1 <0>         0.0557
     48 H8          0.2885   -0.3865    0.7882 H         1 <0>         0.0672
     49 H9         -1.1222   -0.5620   -0.2829 H         1 <0>         0.0610
     50 H10         0.3948   -0.2222   -2.2566 H         1 <0>         0.0788
     51 H11         2.8417   -0.3819   -1.8790 H         1 <0>         0.0626
     52 H12         2.1609    1.0525   -1.0745 H         1 <0>         0.0707
     53 H13         3.7238   -0.1419    0.4297 H         1 <0>         0.0549
     54 H14         2.0628   -0.2011    1.0667 H         1 <0>         0.0575
     55 H15         2.7577   -1.6272    0.2597 H         1 <0>         0.0534
     56 H16         1.2739   -2.4693   -0.3890 H         1 <0>         0.0746
     57 H17        -0.2001   -2.5006   -1.3864 H         1 <0>         0.0625
     58 H18         1.9341   -1.9325   -3.1066 H         1 <0>         0.4209
     59 H19         1.3458   -7.9414   -1.0317 H         1 <0>         0.4173
     60 H20         0.9860   -5.7987    0.7727 H         1 <0>         0.0754
     61 H21        -0.5035   -5.9822   -0.1844 H         1 <0>         0.0688
     62 H22        -0.6413   -8.3652    0.4868 H         1 <0>         0.1037
     63 H23         0.8482   -8.1818    1.4439 H         1 <0>         0.1192
     64 H24         0.6856   -6.6000    3.6649 H         1 <0>         0.2229
     65 H25        -3.5587   -6.4328    3.7767 H         1 <0>         0.2609
     66 H26        -2.2730   -6.0627    6.0676 H         1 <0>         0.1223
     67 H27        -0.4946   -6.1281    6.0315 H         1 <0>         0.1244
     68 H28        -0.4375   -3.9359    4.8740 H         1 <0>         0.0743
     69 H29        -2.2159   -3.8705    4.9102 H         1 <0>         0.0722
     70 H30        -1.2922   -3.8144    6.4307 H         1 <0>         0.1008
     71 H31         4.3702   -4.4835   -6.4018 H         1 <0>         0.2159
     72 H32         6.0149   -6.1298   -5.6435 H         1 <0>         0.0930
     73 H33         6.0985   -7.6600   -4.7154 H         1 <0>         0.1029
     74 H34         2.4992   -8.7990   -7.8857 H         1 <0>         0.3878
     75 H35         3.9508   -8.2226   -9.4920 H         1 <0>         0.3850
     76 H36         6.8145   -5.7597   -8.5547 H         1 <0>         0.1704
     77 H37        10.4977   -7.8129   -7.8208 H         1 <0>         0.1867
     78 H38        10.4585   -5.9134   -9.7760 H         1 <0>         0.0566
     79 H39         8.9222   -5.0661  -10.0762 H         1 <0>         0.0509
     80 H40        10.5069   -3.6677   -8.9632 H         1 <0>         0.3805
     81 H41        -2.7954   -7.3644    1.5888 H         1 <0>         0.4631
@<TRIPOS>BOND
     1    1    2 1
     2    1   45 1
     3    1   46 1
     4    1   47 1
     5    2    3 1
     6    2   48 1
     7    2   49 1
     8    3    4 1
     9    3    6 1
    10    3   50 1
    11    4    5 1
    12    4   51 1
    13    4   52 1
    14    5   53 1
    15    5   54 1
    16    5   55 1
    17    6    7 1
    18    6   56 1
    19    6   57 1
    20    7    8 1
    21    7   58 1
    22    8   13 ar
    23    8    9 ar
    24    9   26 1
    25    9   10 ar
    26   10   11 ar
    27   10   24 1
    28   11   12 ar
    29   12   13 ar
    30   12   14 1
    31   14   15 1
    32   14   59 1
    33   15   16 1
    34   15   60 1
    35   15   61 1
    36   16   17 1
    37   16   62 1
    38   16   63 1
    39   17   21 1
    40   17   18 2
    41   18   19 1
    42   18   64 1
    43   19   20 1
    44   19   22 1
    45   20   21 2
    46   20   65 1
    47   21   81 1
    48   22   23 1
    49   22   66 1
    50   22   67 1
    51   23   68 1
    52   23   69 1
    53   23   70 1
    54   24   25 1
    55   24   27 1
    56   25   26 2
    57   25   71 1
    58   27   28 1
    59   27   34 1
    60   27   29 1
    61   29   30 1
    62   29   72 1
    63   29   73 1
    64   30   31 1
    65   30   32 1
    66   30   38 1
    67   32   33 1
    68   32   34 1
    69   32   37 1
    70   34   35 1
    71   34   36 1
    72   36   74 1
    73   37   75 1
    74   38   42 1
    75   38   39 1
    76   39   40 2
    77   39   76 1
    78   40   41 1
    79   40   43 1
    80   41   42 2
    81   41   77 1
    82   43   44 1
    83   43   78 1
    84   43   79 1
    85   44   80 1
