@<TRIPOS>MOLECULE
CHEMBL1094548
   52    56     0     0     0
SMALL
USER_CHARGES

@<TRIPOS>ATOM
      1 C1          0.0679   -5.3625   -2.3994 C.3       1 <0>         0.0323
      2 N1          0.0749   -4.2172   -1.4794 N.3       1 <0>        -0.5674
      3 C2          1.3216   -4.1648   -0.7176 C.3       1 <0>         0.0718
      4 C3          1.7065   -2.7185   -0.4972 C.3       1 <0>        -0.1326
      5 C4          1.1326   -2.2297    0.8434 C.3       1 <0>         0.1133
      6 N2         -0.2313   -2.7492    1.0641 N.pl3     1 <0>        -0.6087
      7 C5         -1.2228   -2.8065    0.0093 C.3       1 <0>         0.1200
      8 C6         -1.1224   -4.1630   -0.7283 C.3       1 <0>         0.0526
      9 C7         -0.5774   -3.2011    2.3321 C.ar      1 <0>         0.2414
     10 C8         -1.8072   -3.8142    2.5367 C.ar      1 <0>        -0.1959
     11 C9         -2.1572   -4.2661    3.7948 C.ar      1 <0>         0.0056
     12 C10        -1.2779   -4.1075    4.8613 C.ar      1 <0>        -0.2151
     13 C11        -0.0312   -3.4872    4.6595 C.ar      1 <0>         0.0146
     14 C12         0.3143   -3.0424    3.3945 C.ar      1 <0>        -0.1485
     15 C13         0.6933   -3.4522    5.9554 C.ar      1 <0>         0.3027
     16 C14        -0.1196   -4.0525    6.9373 C.ar      1 <0>        -0.3403
     17 C15         0.3638   -4.1333    8.2517 C.ar      1 <0>         0.3367
     18 N3          1.5731   -3.6384    8.5177 N.ar      1 <0>        -0.5699
     19 C16         2.3045   -3.0824    7.5651 C.ar      1 <0>         0.5996
     20 N4          1.8821   -2.9869    6.3083 N.ar      1 <0>        -0.5621
     21 N5          3.5497   -2.5842    7.8879 N.pl3     1 <0>        -0.8063
     22 C17        -0.4517   -4.7542    9.3210 C.ar      1 <0>        -0.0792
     23 C18        -1.8396   -4.6173    9.3120 C.ar      1 <0>        -0.0585
     24 C19        -2.5939   -5.1985   10.3106 C.ar      1 <0>        -0.1275
     25 C20        -1.9761   -5.9159   11.3194 C.ar      1 <0>        -0.0941
     26 C21        -0.5997   -6.0548   11.3340 C.ar      1 <0>        -0.1349
     27 C22         0.1649   -5.4831   10.3378 C.ar      1 <0>        -0.0671
     28 C23        -1.3727   -4.4805    6.2918 C.2       1 <0>         0.4683
     29 O1         -2.3092   -5.0359    6.8319 O.2       1 <0>        -0.4256
     30 H1         -0.8114   -5.3076   -3.0411 H         1 <0>         0.0680
     31 H2          0.9680   -5.3406   -3.0137 H         1 <0>         0.0680
     32 H3          0.0419   -6.2890   -1.8258 H         1 <0>         0.0245
     33 H4          1.1811   -4.6554    0.2456 H         1 <0>         0.0430
     34 H5          2.1104   -4.6711   -1.2741 H         1 <0>         0.0718
     35 H6          2.7928   -2.6307   -0.4805 H         1 <0>         0.0813
     36 H7          1.3060   -2.1090   -1.3072 H         1 <0>         0.0820
     37 H8          1.7790   -2.5684    1.6531 H         1 <0>         0.0821
     38 H9          1.1038   -1.1401    0.8432 H         1 <0>         0.0661
     39 H10        -2.2182   -2.7017    0.4410 H         1 <0>         0.0855
     40 H11        -1.0476   -1.9955   -0.6976 H         1 <0>         0.0876
     41 H12        -1.9750   -4.2747   -1.3981 H         1 <0>         0.0843
     42 H13        -1.1288   -4.9728    0.0012 H         1 <0>         0.0307
     43 H14        -2.4916   -3.9377    1.7104 H         1 <0>         0.1374
     44 H15        -3.1140   -4.7423    3.9504 H         1 <0>         0.1382
     45 H16         1.2712   -2.5693    3.2308 H         1 <0>         0.1389
     46 H17         3.8749   -2.6449    8.7998 H         1 <0>         0.4202
     47 H18         4.1001   -2.1732    7.2031 H         1 <0>         0.4188
     48 H19        -2.3230   -4.0572    8.5252 H         1 <0>         0.1361
     49 H20        -3.6687   -5.0929   10.3049 H         1 <0>         0.1285
     50 H21        -2.5706   -6.3690   12.0988 H         1 <0>         0.1258
     51 H22        -0.1230   -6.6157   12.1244 H         1 <0>         0.1274
     52 H23         1.2390   -5.5960   10.3478 H         1 <0>         0.1286
@<TRIPOS>BOND
     1    1    2 1
     2    1   30 1
     3    1   31 1
     4    1   32 1
     5    2    8 1
     6    2    3 1
     7    3    4 1
     8    3   33 1
     9    3   34 1
    10    4    5 1
    11    4   35 1
    12    4   36 1
    13    5    6 1
    14    5   37 1
    15    5   38 1
    16    6    7 1
    17    6    9 1
    18    7    8 1
    19    7   39 1
    20    7   40 1
    21    8   41 1
    22    8   42 1
    23    9   14 ar
    24    9   10 ar
    25   10   11 ar
    26   10   43 1
    27   11   12 ar
    28   11   44 1
    29   12   28 1
    30   12   13 ar
    31   13   14 ar
    32   13   15 1
    33   14   45 1
    34   15   20 ar
    35   15   16 ar
    36   16   17 ar
    37   16   28 1
    38   17   18 ar
    39   17   22 1
    40   18   19 ar
    41   19   20 ar
    42   19   21 1
    43   21   46 1
    44   21   47 1
    45   22   27 ar
    46   22   23 ar
    47   23   24 ar
    48   23   48 1
    49   24   25 ar
    50   24   49 1
    51   25   26 ar
    52   25   50 1
    53   26   27 ar
    54   26   51 1
    55   27   52 1
    56   28   29 2
