@<TRIPOS>MOLECULE
CHEMBL260989
   42    45     0     0     0
SMALL
USER_CHARGES

@<TRIPOS>ATOM
      1 C1         -0.0167    1.3781    0.0096 C.ar      1 <0>        -0.1184
      2 C2          1.1709    2.0855    0.0021 C.ar      1 <0>        -0.1179
      3 C3          2.3773    1.4107   -0.0130 C.ar      1 <0>        -0.1125
      4 C4          2.3960    0.0285   -0.0201 C.ar      1 <0>        -0.0873
      5 C5          1.2084   -0.6789   -0.0117 C.ar      1 <0>        -0.1125
      6 C6          0.0021   -0.0041    0.0020 C.ar      1 <0>        -0.1179
      7 C7          3.7112   -0.7071   -0.0376 C.3       1 <0>        -0.0909
      8 C8          4.1714   -0.9633    1.3989 C.3       1 <0>         0.1373
      9 N1          5.4498   -1.6784    1.3820 N.am      1 <0>        -0.7249
     10 C9          6.0502   -2.0132    2.5413 C.2       1 <0>         0.7081
     11 O1          5.5310   -1.7219    3.6005 O.2       1 <0>        -0.5076
     12 N2          7.2263   -2.6711    2.5257 N.am      1 <0>        -0.4709
     13 C10         7.9274   -3.0574    1.4130 C.2       1 <0>         0.2523
     14 N3          9.0185   -3.6691    1.7676 N.2       1 <0>        -0.4179
     15 C11         9.0947   -3.7187    3.1192 C.ar      1 <0>        -0.0936
     16 C12         7.9517   -3.0759    3.6257 C.ar      1 <0>         0.3664
     17 N4          7.7886   -2.9840    4.9388 N.ar      1 <0>        -0.5476
     18 C13         8.6896   -3.4871    5.7693 C.ar      1 <0>         0.6030
     19 N5          9.7839   -4.0986    5.3414 N.ar      1 <0>        -0.5435
     20 C14        10.0257   -4.2442    4.0376 C.ar      1 <0>         0.3704
     21 C15        11.2453   -4.9242    3.5687 C.2       1 <0>         0.0048
     22 C16        12.4642   -4.8897    4.1761 C.2       1 <0>        -0.1329
     23 C17        13.3302   -5.6726    3.3909 C.2       1 <0>        -0.2232
     24 C18        12.6077   -6.1428    2.3533 C.2       1 <0>        -0.0069
     25 O2         11.3484   -5.6938    2.4671 O.3       1 <0>        -0.1488
     26 N6          8.4801   -3.3693    7.1336 N.pl3     1 <0>        -0.8076
     27 H1         -0.9591    1.9053    0.0259 H         1 <0>         0.1229
     28 H2          1.1563    3.1654    0.0076 H         1 <0>         0.1237
     29 H3          3.3051    1.9634   -0.0196 H         1 <0>         0.1229
     30 H4          1.2231   -1.7588   -0.0176 H         1 <0>         0.1229
     31 H5         -0.9258   -0.5567    0.0082 H         1 <0>         0.1237
     32 H6          3.5884   -1.6586   -0.5549 H         1 <0>         0.0836
     33 H7          4.4573   -0.1052   -0.5563 H         1 <0>         0.0836
     34 H8          4.2941   -0.0118    1.9163 H         1 <0>         0.0776
     35 H9          3.4252   -1.5652    1.9176 H         1 <0>         0.0776
     36 H10         5.8643   -1.9110    0.5363 H         1 <0>         0.4031
     37 H11         7.6191   -2.8802    0.3932 H         1 <0>         0.2323
     38 H12        12.7169   -4.3629    5.0844 H         1 <0>         0.1575
     39 H13        14.3763   -5.8611    3.5825 H         1 <0>         0.1566
     40 H14        12.9802   -6.7787    1.5638 H         1 <0>         0.2113
     41 H15         7.6846   -2.9244    7.4655 H         1 <0>         0.4206
     42 H16         9.1290   -3.7316    7.7570 H         1 <0>         0.4207
@<TRIPOS>BOND
     1    1    6 ar
     2    1    2 ar
     3    1   27 1
     4    2    3 ar
     5    2   28 1
     6    3    4 ar
     7    3   29 1
     8    4    5 ar
     9    4    7 1
    10    5    6 ar
    11    5   30 1
    12    6   31 1
    13    7    8 1
    14    7   32 1
    15    7   33 1
    16    8    9 1
    17    8   34 1
    18    8   35 1
    19    9   10 am
    20    9   36 1
    21   10   11 2
    22   10   12 am
    23   12   16 1
    24   12   13 1
    25   13   14 2
    26   13   37 1
    27   14   15 1
    28   15   20 ar
    29   15   16 ar
    30   16   17 ar
    31   17   18 ar
    32   18   19 ar
    33   18   26 1
    34   19   20 ar
    35   20   21 1
    36   21   25 1
    37   21   22 2
    38   22   23 1
    39   22   38 1
    40   23   24 2
    41   23   39 1
    42   24   25 1
    43   24   40 1
    44   26   41 1
    45   26   42 1
