@<TRIPOS>MOLECULE
CHEMBL177539
   55    60     0     0     0
SMALL
USER_CHARGES

@<TRIPOS>ATOM
      1 C1         -1.1359    0.2318    0.0502 C.ar      1 <0>        -0.1286
      2 C2         -0.1280    1.1853    0.0621 C.ar      1 <0>        -0.0701
      3 C3          1.1977    0.8078    0.0473 C.ar      1 <0>        -0.1115
      4 C4          1.5318   -0.5406    0.0206 C.ar      1 <0>         0.0725
      5 C5          0.5067   -1.5012    0.0092 C.ar      1 <0>        -0.1485
      6 C6         -0.8284   -1.1003    0.0240 C.ar      1 <0>        -0.0598
      7 C7          1.1878   -2.8011   -0.0187 C.2       1 <0>        -0.1318
      8 C8          2.5010   -2.5347   -0.0217 C.2       1 <0>        -0.0517
      9 O1          2.7042   -1.2059    0.0015 O.3       1 <0>        -0.1865
     10 C9          3.5920   -3.5740   -0.0472 C.3       1 <0>         0.0783
     11 N1          3.9383   -3.8863   -1.4402 N.4       1 <0>        -0.3876
     12 C10         2.7844   -4.5249   -2.1085 C.3       1 <0>        -0.0115
     13 C11         3.4099   -5.5756   -3.0596 C.3       1 <0>        -0.1444
     14 C12         4.6051   -6.0905   -2.2151 C.3       1 <0>        -0.1176
     15 C13         5.0761   -4.8235   -1.4705 C.3       1 <0>         0.0368
     16 H1          5.9145   -4.3719   -2.0008 H         1 <0>         0.1423
     17 C14         5.4923   -5.1833   -0.0428 C.3       1 <0>         0.0733
     18 N2          6.6617   -6.0648   -0.0825 N.2       1 <0>        -0.6305
     19 C15         7.2198   -6.5236    1.0926 C.2       1 <0>         0.5528
     20 N3          8.2894   -7.3224    1.0424 N.pl3     1 <0>        -0.5714
     21 C16         8.8438   -7.7762    2.1520 C.cat     1 <0>         0.7591
     22 N4          8.3143   -7.4220    3.3585 N.pl3     1 <0>        -0.4134
     23 C17         7.2170   -6.6020    3.3993 C.2       1 <0>         0.5539
     24 N5          6.6893   -6.1600    2.2487 N.2       1 <0>        -0.5854
     25 N6          6.9071   -6.4144    4.6715 N.2       1 <0>        -0.5235
     26 C18         7.7673   -7.0855    5.4480 C.2       1 <0>         0.4053
     27 N7          8.6429   -7.7143    4.6870 N.2       1 <0>        -0.3310
     28 C19         7.7406   -7.1165    6.9252 C.2       1 <0>         0.0156
     29 C20         6.8415   -6.4780    7.7205 C.2       1 <0>        -0.1085
     30 C21         7.1896   -6.7816    9.0515 C.2       1 <0>        -0.2215
     31 C22         8.2727   -7.5820    9.0036 C.2       1 <0>         0.0078
     32 O2          8.5993   -7.7869    7.7175 O.3       1 <0>        -0.1594
     33 N8          9.9405   -8.5956    2.0919 N.pl3     1 <0>        -0.7751
     34 H2         -2.1697    0.5437    0.0663 H         1 <0>         0.1388
     35 H3         -0.3848    2.2341    0.0829 H         1 <0>         0.1447
     36 H4          1.9745    1.5580    0.0561 H         1 <0>         0.1390
     37 H5         -1.6165   -1.8386    0.0144 H         1 <0>         0.1345
     38 H6          0.7238   -3.7762   -0.0338 H         1 <0>         0.1670
     39 H7          4.4721   -3.1896    0.4685 H         1 <0>         0.1528
     40 H8          3.2443   -4.4782    0.4523 H         1 <0>         0.1602
     41 H9          2.1426   -5.0120   -1.3744 H         1 <0>         0.1303
     42 H10         2.2193   -3.7868   -2.6776 H         1 <0>         0.1325
     43 H11         2.7052   -6.3801   -3.2701 H         1 <0>         0.1152
     44 H12         3.7557   -5.1100   -3.9825 H         1 <0>         0.0975
     45 H13         4.2776   -6.8533   -1.5087 H         1 <0>         0.0959
     46 H14         5.3954   -6.4748   -2.8599 H         1 <0>         0.1127
     47 H15         5.7415   -4.2734    0.5032 H         1 <0>         0.0679
     48 H16         4.6695   -5.6936    0.4578 H         1 <0>         0.0685
     49 H17         6.0195   -5.8578    7.3949 H         1 <0>         0.1654
     50 H18         6.6843   -6.4376    9.9418 H         1 <0>         0.1632
     51 H19         8.7895   -7.9940    9.8578 H         1 <0>         0.2175
     52 H20        10.3132   -8.8449    1.2317 H         1 <0>         0.4391
     53 H21        10.3442   -8.9264    2.9096 H         1 <0>         0.4509
     54 H22         4.1840   -3.0380   -1.9282 H         1 <0>         0.4282
     55 H23         8.6623   -7.5720    0.1825 H         1 <0>         0.4497
@<TRIPOS>BOND
     1    1    6 ar
     2    1    2 ar
     3    1   34 1
     4    2    3 ar
     5    2   35 1
     6    3    4 ar
     7    3   36 1
     8    4    9 1
     9    4    5 ar
    10    5    6 ar
    11    5    7 1
    12    6   37 1
    13    7    8 2
    14    7   38 1
    15    8    9 1
    16    8   10 1
    17   10   11 1
    18   10   39 1
    19   10   40 1
    20   11   15 1
    21   11   12 1
    22   11   54 1
    23   12   13 1
    24   12   41 1
    25   12   42 1
    26   13   14 1
    27   13   43 1
    28   13   44 1
    29   14   15 1
    30   14   45 1
    31   14   46 1
    32   15   16 1
    33   15   17 1
    34   17   18 1
    35   17   47 1
    36   17   48 1
    37   18   19 1
    38   19   24 2
    39   19   20 1
    40   20   21 2
    41   20   55 1
    42   21   22 1
    43   21   33 1
    44   22   27 1
    45   22   23 1
    46   23   24 1
    47   23   25 2
    48   25   26 1
    49   26   27 2
    50   26   28 1
    51   28   32 1
    52   28   29 2
    53   29   30 1
    54   29   49 1
    55   30   31 2
    56   30   50 1
    57   31   32 1
    58   31   51 1
    59   33   52 1
    60   33   53 1
