@<TRIPOS>MOLECULE
CHEMBL180211
   72    77     0     0     0
SMALL
USER_CHARGES

@<TRIPOS>ATOM
      1 C1         -0.0333    1.4273    0.0118 C.3       1 <0>         0.0300
      2 O1         -0.0129   -0.0016    0.0067 O.3       1 <0>        -0.3866
      3 C2          0.6507   -0.5694   -1.1244 C.3       1 <0>         0.0584
      4 C3          0.6118   -2.0957   -1.0253 C.3       1 <0>         0.0596
      5 O2         -0.7418   -2.5446   -1.1165 O.3       1 <0>        -0.2985
      6 C4         -0.9532   -3.8842   -1.0455 C.ar      1 <0>         0.1480
      7 C5          0.1183   -4.7490   -0.8855 C.ar      1 <0>        -0.1622
      8 C6         -0.0943   -6.1111   -0.8126 C.ar      1 <0>        -0.1115
      9 C7         -1.3834   -6.6263   -0.8993 C.ar      1 <0>         0.1609
     10 C8         -2.4630   -5.7747   -1.0596 C.ar      1 <0>        -0.1023
     11 C9         -2.2554   -4.3949   -1.1279 C.ar      1 <0>        -0.0096
     12 C10        -3.3676   -3.5070   -1.2873 C.1       1 <0>         0.2487
     13 N1         -4.2499   -2.8027   -1.4137 N.1       1 <0>        -0.3944
     14 N2         -1.5895   -8.0086   -0.8248 N.pl3     1 <0>        -0.6438
     15 C11        -2.9488   -8.5702   -0.7953 C.3       1 <0>         0.0994
     16 C12        -3.0431   -9.6701   -1.8580 C.3       1 <0>        -0.0234
     17 N3         -1.9758  -10.6543   -1.6384 N.4       1 <0>        -0.3816
     18 C13        -0.6649  -10.0235   -1.8380 C.3       1 <0>        -0.0289
     19 C14        -0.4528   -8.9414   -0.7800 C.3       1 <0>         0.1033
     20 C15        -2.1327  -11.7642   -2.5879 C.3       1 <0>         0.0452
     21 C16        -1.1141  -12.8326   -2.2845 C.ar      1 <0>        -0.1661
     22 C17         0.1307  -12.7907   -2.8870 C.ar      1 <0>        -0.0837
     23 C18         1.0710  -13.7675   -2.6131 C.ar      1 <0>        -0.1114
     24 C19         0.7718  -14.7908   -1.7367 C.ar      1 <0>        -0.0587
     25 C20        -0.4809  -14.8384   -1.1266 C.ar      1 <0>        -0.0354
     26 C21        -1.4228  -13.8475   -1.4023 C.ar      1 <0>        -0.0502
     27 C22        -0.8084  -15.9345   -0.1845 C.2       1 <0>         0.2289
     28 C23         0.1325  -16.9093    0.0944 C.2       1 <0>        -0.2020
     29 C24        -0.2116  -17.9348    0.9935 C.2       1 <0>         0.3485
     30 N4          0.4325  -18.9905    1.4658 N.2       1 <0>        -0.5141
     31 C25        -0.3604  -19.6585    2.3096 C.2       1 <0>         0.3633
     32 N5         -1.5268  -19.0441    2.3940 N.2       1 <0>        -0.3132
     33 N6         -1.4634  -17.9247    1.5544 N.pl3     1 <0>        -0.3620
     34 C26        -2.3433  -16.9349    1.2368 C.2       1 <0>         0.6613
     35 N7         -2.0155  -15.9766    0.4006 N.2       1 <0>        -0.5608
     36 N8         -3.5954  -16.9358    1.8059 N.pl3     1 <0>        -0.8039
     37 C27         0.0099  -20.8922    3.0346 C.2       1 <0>         0.0239
     38 C28         1.2073  -21.5315    2.9613 C.2       1 <0>        -0.1189
     39 C29         1.1210  -22.6533    3.8094 C.2       1 <0>        -0.2196
     40 C30        -0.1121  -22.6434    4.3528 C.2       1 <0>         0.0009
     41 O3         -0.7785  -21.5750    3.8870 O.3       1 <0>        -0.1604
     42 H1          0.9891    1.8052    0.0155 H         1 <0>         0.0449
     43 H2         -0.5502    1.7864   -0.8782 H         1 <0>         0.0446
     44 H3         -0.5543    1.7800    0.9018 H         1 <0>         0.0903
     45 H4          0.1480   -0.2516   -2.0379 H         1 <0>         0.0634
     46 H5          1.6872   -0.2329   -1.1442 H         1 <0>         0.0775
     47 H6          1.1934   -2.5276   -1.8397 H         1 <0>         0.0843
     48 H7          1.0349   -2.4087   -0.0708 H         1 <0>         0.0786
     49 H8          1.1220   -4.3561   -0.8181 H         1 <0>         0.1450
     50 H9          0.7444   -6.7800   -0.6879 H         1 <0>         0.1351
     51 H10        -3.4635   -6.1757   -1.1273 H         1 <0>         0.1397
     52 H11        -3.1488   -8.9938    0.1889 H         1 <0>         0.0900
     53 H12        -3.6738   -7.7863   -1.0142 H         1 <0>         0.1264
     54 H13        -4.0126  -10.1630   -1.7858 H         1 <0>         0.1420
     55 H14        -2.9324   -9.2288   -2.8486 H         1 <0>         0.1349
     56 H15         0.1180  -10.7769   -1.7511 H         1 <0>         0.1415
     57 H16        -0.6262   -9.5715   -2.8292 H         1 <0>         0.1339
     58 H17         0.4715   -8.4028   -0.9888 H         1 <0>         0.1258
     59 H18        -0.3965   -9.4031    0.2058 H         1 <0>         0.0878
     60 H19        -3.1354  -12.1817   -2.4963 H         1 <0>         0.1396
     61 H20        -1.9832  -11.3975   -3.6034 H         1 <0>         0.1376
     62 H21         0.3691  -11.9923   -3.5740 H         1 <0>         0.1353
     63 H22         2.0410  -13.7296   -3.0864 H         1 <0>         0.1442
     64 H23         1.5064  -15.5534   -1.5242 H         1 <0>         0.1450
     65 H24        -2.3933  -13.8769   -0.9295 H         1 <0>         0.1450
     66 H25         1.1084  -16.8837   -0.3675 H         1 <0>         0.1679
     67 H26        -3.8451  -17.6374    2.4274 H         1 <0>         0.4282
     68 H27        -4.2288  -16.2349    1.5857 H         1 <0>         0.4291
     69 H28         2.0600  -21.2366    2.3678 H         1 <0>         0.1638
     70 H29         1.8963  -23.3833    3.9896 H         1 <0>         0.1622
     71 H30        -0.4987  -23.3716    5.0505 H         1 <0>         0.2162
     72 H31        -2.0365  -11.0099   -0.6961 H         1 <0>         0.4228
@<TRIPOS>BOND
     1    1    2 1
     2    1   42 1
     3    1   43 1
     4    1   44 1
     5    2    3 1
     6    3    4 1
     7    3   45 1
     8    3   46 1
     9    4    5 1
    10    4   47 1
    11    4   48 1
    12    5    6 1
    13    6   11 ar
    14    6    7 ar
    15    7    8 ar
    16    7   49 1
    17    8    9 ar
    18    8   50 1
    19    9   10 ar
    20    9   14 1
    21   10   11 ar
    22   10   51 1
    23   11   12 1
    24   12   13 3
    25   14   19 1
    26   14   15 1
    27   15   16 1
    28   15   52 1
    29   15   53 1
    30   16   17 1
    31   16   54 1
    32   16   55 1
    33   17   18 1
    34   17   20 1
    35   17   72 1
    36   18   19 1
    37   18   56 1
    38   18   57 1
    39   19   58 1
    40   19   59 1
    41   20   21 1
    42   20   60 1
    43   20   61 1
    44   21   26 ar
    45   21   22 ar
    46   22   23 ar
    47   22   62 1
    48   23   24 ar
    49   23   63 1
    50   24   25 ar
    51   24   64 1
    52   25   26 ar
    53   25   27 1
    54   26   65 1
    55   27   35 1
    56   27   28 2
    57   28   29 1
    58   28   66 1
    59   29   33 1
    60   29   30 2
    61   30   31 1
    62   31   32 2
    63   31   37 1
    64   32   33 1
    65   33   34 1
    66   34   35 2
    67   34   36 1
    68   36   67 1
    69   36   68 1
    70   37   41 1
    71   37   38 2
    72   38   39 1
    73   38   69 1
    74   39   40 2
    75   39   70 1
    76   40   41 1
    77   40   71 1
