@<TRIPOS>MOLECULE
CHEMBL1088235
   50    54     0     0     0
SMALL
USER_CHARGES

@<TRIPOS>ATOM
      1 C1         -0.0167    1.3793    0.0096 C.ar      1 <0>        -0.0867
      2 C2          1.1685    2.0929    0.0021 C.ar      1 <0>        -0.1314
      3 C3          2.3774    1.4279   -0.0130 C.ar      1 <0>        -0.0631
      4 C4          2.4029    0.0333   -0.0207 C.ar      1 <0>        -0.0904
      5 C5          1.2046   -0.6805   -0.0131 C.ar      1 <0>        -0.0605
      6 C6          0.0021   -0.0041    0.0020 C.ar      1 <0>        -0.1263
      7 C7          3.6972   -0.6866   -0.0375 C.ar      1 <0>         0.3539
      8 C8          3.8485   -1.9053    0.6416 C.ar      1 <0>        -0.3488
      9 C9          5.0995   -2.5526    0.5963 C.ar      1 <0>         0.2930
     10 N1          6.0850   -1.9878   -0.0854 N.ar      1 <0>        -0.5606
     11 C10         5.9016   -0.8324   -0.7162 C.ar      1 <0>         0.6072
     12 N2          4.7422   -0.1938   -0.7026 N.ar      1 <0>        -0.5629
     13 N3          6.9560   -0.2811   -1.4137 N.pl3     1 <0>        -0.7986
     14 C11         5.0091   -3.8087    1.3828 C.ar      1 <0>        -0.0219
     15 C12         5.9398   -4.8012    1.6568 C.ar      1 <0>        -0.0492
     16 C13         5.5832   -5.8911    2.4363 C.ar      1 <0>        -0.1462
     17 C14         4.3040   -5.9981    2.9448 C.ar      1 <0>        -0.0762
     18 C15         3.3631   -5.0152    2.6796 C.ar      1 <0>        -0.0505
     19 C16         3.7079   -3.9189    1.9009 C.ar      1 <0>        -0.1064
     20 C17         2.9384   -2.7304    1.4536 C.2       1 <0>         0.4550
     21 O1          1.7764   -2.4848    1.7094 O.2       1 <0>        -0.3932
     22 C18         6.5980   -6.9658    2.7299 C.3       1 <0>         0.0453
     23 N4          7.3232   -6.6308    3.9628 N.4       1 <0>        -0.5079
     24 C19         8.3124   -7.6784    4.2489 C.3       1 <0>         0.0583
     25 C20         9.0563   -7.3348    5.5137 C.ar      1 <0>         0.0448
     26 C21         8.6372   -7.8667    6.7187 C.ar      1 <0>        -0.1416
     27 C22         9.3284   -7.5443    7.8763 C.ar      1 <0>        -0.0684
     28 C23        10.4204   -6.6952    7.7781 C.ar      1 <0>        -0.1333
     29 C24        10.7807   -6.2021    6.5386 C.ar      1 <0>         0.1107
     30 N5         10.1028   -6.5346    5.4573 N.ar      1 <0>        -0.4662
     31 H1         -0.9604    1.9042    0.0260 H         1 <0>         0.1299
     32 H2          1.1475    3.1726    0.0078 H         1 <0>         0.1314
     33 H3          3.3020    1.9860   -0.0192 H         1 <0>         0.1304
     34 H4          1.2180   -1.7604   -0.0194 H         1 <0>         0.1322
     35 H5         -0.9264   -0.5556    0.0083 H         1 <0>         0.1310
     36 H6          7.8124   -0.7360   -1.4376 H         1 <0>         0.4210
     37 H7          6.8412    0.5615   -1.8803 H         1 <0>         0.4249
     38 H8          6.9422   -4.7247    1.2623 H         1 <0>         0.1488
     39 H9          4.0354   -6.8506    3.5509 H         1 <0>         0.1493
     40 H10         2.3631   -5.1023    3.0782 H         1 <0>         0.1539
     41 H11         6.0891   -7.9214    2.8559 H         1 <0>         0.1472
     42 H12         7.3029   -7.0360    1.9014 H         1 <0>         0.1462
     43 H13         7.7943   -5.7462    3.8461 H         1 <0>         0.4326
     44 H14         7.8035   -8.6341    4.3750 H         1 <0>         0.1480
     45 H15         9.0173   -7.7486    3.4205 H         1 <0>         0.1489
     46 H16         7.7818   -8.5248    6.7580 H         1 <0>         0.1457
     47 H17         9.0236   -7.9446    8.8319 H         1 <0>         0.1501
     48 H18        10.9819   -6.4224    8.6594 H         1 <0>         0.1514
     49 H19        11.6298   -5.5402    6.4537 H         1 <0>         0.1719
     50 H20         6.6707   -6.5658    4.7296 H         1 <0>         0.4271
@<TRIPOS>BOND
     1    1    6 ar
     2    1    2 ar
     3    1   31 1
     4    2    3 ar
     5    2   32 1
     6    3    4 ar
     7    3   33 1
     8    4    5 ar
     9    4    7 1
    10    5    6 ar
    11    5   34 1
    12    6   35 1
    13    7   12 ar
    14    7    8 ar
    15    8   20 1
    16    8    9 ar
    17    9   10 ar
    18    9   14 1
    19   10   11 ar
    20   11   12 ar
    21   11   13 1
    22   13   36 1
    23   13   37 1
    24   14   19 ar
    25   14   15 ar
    26   15   16 ar
    27   15   38 1
    28   16   17 ar
    29   16   22 1
    30   17   18 ar
    31   17   39 1
    32   18   19 ar
    33   18   40 1
    34   19   20 1
    35   20   21 2
    36   22   23 1
    37   22   41 1
    38   22   42 1
    39   23   24 1
    40   23   43 1
    41   23   50 1
    42   24   25 1
    43   24   44 1
    44   24   45 1
    45   25   30 ar
    46   25   26 ar
    47   26   27 ar
    48   26   46 1
    49   27   28 ar
    50   27   47 1
    51   28   29 ar
    52   28   48 1
    53   29   30 ar
    54   29   49 1
