@<TRIPOS>MOLECULE
CHEMBL515992
   41    43     0     0     0
SMALL
USER_CHARGES

@<TRIPOS>ATOM
      1 C1         -0.2215    1.6738   -0.8788 C.3       1 <0>        -0.0737
      2 C2         -0.0897    0.1925   -0.6349 C.2       1 <0>         0.0925
      3 C3         -0.2438   -0.8130   -1.5969 C.2       1 <0>        -0.2648
      4 C4         -0.0484   -2.0052   -0.9893 C.2       1 <0>         0.1233
      5 N1          0.2216   -1.7600    0.3201 N.pl3     1 <0>        -0.3191
      6 N2          0.1936   -0.3723    0.5101 N.2       1 <0>        -0.2635
      7 C5          0.4843   -2.7185    1.2987 C.ar      1 <0>         0.6228
      8 N3          0.6162   -3.9850    0.9402 N.ar      1 <0>        -0.5445
      9 C6          0.8670   -4.9268    1.8451 C.ar      1 <0>         0.4541
     10 C7          0.9901   -4.5641    3.1830 C.ar      1 <0>        -0.3123
     11 C8          0.8449   -3.2222    3.5208 C.ar      1 <0>         0.4601
     12 N4          0.6001   -2.3360    2.5595 N.ar      1 <0>        -0.5614
     13 N5          0.9592   -2.8122    4.8451 N.am      1 <0>        -0.5432
     14 C9          0.7134   -1.4428    5.3121 C.3       1 <0>         0.1007
     15 C10         0.5297   -1.5558    6.8418 C.3       1 <0>        -0.1331
     16 C11         1.3233   -2.8440    7.1604 C.3       1 <0>        -0.1489
     17 C12         1.3033   -3.6207    5.8623 C.2       1 <0>         0.5260
     18 O1          1.5626   -4.8005    5.7548 O.2       1 <0>        -0.4988
     19 N6          1.0038   -6.2563    1.4596 N.am      1 <0>        -0.6518
     20 C13         0.9878   -6.5839    0.1524 C.2       1 <0>         0.5020
     21 O2          0.7616   -5.7344   -0.6829 O.2       1 <0>        -0.4684
     22 C14         1.2512   -8.0060   -0.2712 C.3       1 <0>        -0.1686
     23 C15        -0.1175   -3.3603   -1.6451 C.3       1 <0>        -0.0822
     24 H1          0.7488    2.0836   -1.1591 H         1 <0>         0.0817
     25 H2         -0.9356    1.8473   -1.6838 H         1 <0>         0.0824
     26 H3         -0.5731    2.1618    0.0302 H         1 <0>         0.0761
     27 H4         -0.4779   -0.6629   -2.6405 H         1 <0>         0.1590
     28 H5          1.1932   -5.3063    3.9409 H         1 <0>         0.1801
     29 H6          1.5675   -0.8064    5.0808 H         1 <0>         0.0883
     30 H7         -0.1907   -1.0439    4.8521 H         1 <0>         0.0962
     31 H8          0.9626   -0.6949    7.3513 H         1 <0>         0.1019
     32 H9         -0.5227   -1.6718    7.1008 H         1 <0>         0.0887
     33 H10         2.3461   -2.6007    7.4481 H         1 <0>         0.1166
     34 H11         0.8290   -3.4115    7.9489 H         1 <0>         0.1143
     35 H12         1.1107   -6.9475    2.1316 H         1 <0>         0.4260
     36 H13         1.4324   -8.6202    0.6108 H         1 <0>         0.0797
     37 H14         0.3855   -8.3908   -0.8103 H         1 <0>         0.1023
     38 H15         2.1262   -8.0356   -0.9206 H         1 <0>         0.1024
     39 H16         0.8863   -3.6804   -1.9244 H         1 <0>         0.0854
     40 H17        -0.5476   -4.0797   -0.9483 H         1 <0>         0.0999
     41 H18        -0.7413   -3.3009   -2.5370 H         1 <0>         0.0716
@<TRIPOS>BOND
     1    1    2 1
     2    1   24 1
     3    1   25 1
     4    1   26 1
     5    2    6 2
     6    2    3 1
     7    3    4 2
     8    3   27 1
     9    4    5 1
    10    4   23 1
    11    5    6 1
    12    5    7 1
    13    7   12 ar
    14    7    8 ar
    15    8    9 ar
    16    9   10 ar
    17    9   19 1
    18   10   11 ar
    19   10   28 1
    20   11   12 ar
    21   11   13 1
    22   13   17 am
    23   13   14 1
    24   14   15 1
    25   14   29 1
    26   14   30 1
    27   15   16 1
    28   15   31 1
    29   15   32 1
    30   16   17 1
    31   16   33 1
    32   16   34 1
    33   17   18 2
    34   19   20 am
    35   19   35 1
    36   20   21 2
    37   20   22 1
    38   22   36 1
    39   22   37 1
    40   22   38 1
    41   23   39 1
    42   23   40 1
    43   23   41 1
