@<TRIPOS>MOLECULE
CHEMBL1088665
   55    59     0     0     0
SMALL
USER_CHARGES

@<TRIPOS>ATOM
      1 C1         -0.0178    1.4648    0.0101 C.3       1 <0>        -0.0459
      2 N1          0.0021   -0.0041    0.0020 N.4       1 <0>        -0.3895
      3 C2         -1.3761   -0.5122    0.0107 C.3       1 <0>         0.0025
      4 C3         -1.3560   -2.0421   -0.0167 C.3       1 <0>        -0.0005
      5 N2         -0.6244   -2.5407    1.1564 N.3       1 <0>        -0.3851
      6 C4          0.7499   -2.0201    1.1745 C.3       1 <0>         0.0384
      7 C5          0.7125   -0.4904    1.1921 C.3       1 <0>        -0.0029
      8 N3         -0.6316   -3.9941    1.1959 N.3       1 <0>        -0.5138
      9 C6         -1.2706   -4.4842    2.4245 C.3       1 <0>         0.1088
     10 C7         -1.2593   -5.9911    2.4299 C.ar      1 <0>        -0.0757
     11 C8         -2.3130   -6.6871    1.8714 C.ar      1 <0>        -0.0966
     12 C9         -2.3119   -8.0733    1.8714 C.ar      1 <0>        -0.0498
     13 C10        -1.2481   -8.7648    2.4348 C.ar      1 <0>        -0.1336
     14 C11        -0.1754   -8.0579    3.0035 C.ar      1 <0>        -0.0319
     15 C12        -0.1883   -6.6702    2.9907 C.ar      1 <0>        -0.0447
     16 C13         0.8112   -9.0369    3.5258 C.ar      1 <0>         0.3020
     17 C14         0.3299  -10.3369    3.2704 C.ar      1 <0>        -0.3486
     18 C15         1.1042  -11.4328    3.6802 C.ar      1 <0>         0.3470
     19 N4          2.2642  -11.1992    4.2949 N.ar      1 <0>        -0.5675
     20 C16         2.6795   -9.9620    4.5153 C.ar      1 <0>         0.6040
     21 N5          1.9753   -8.8978    4.1422 N.ar      1 <0>        -0.5627
     22 N6          3.8860   -9.7698    5.1552 N.pl3     1 <0>        -0.8026
     23 C17         0.6430  -12.8189    3.4359 C.ar      1 <0>        -0.0855
     24 C18        -0.7167  -13.1248    3.4936 C.ar      1 <0>        -0.0600
     25 C19        -1.1402  -14.4180    3.2651 C.ar      1 <0>        -0.1268
     26 C20        -0.2194  -15.4101    2.9792 C.ar      1 <0>        -0.0900
     27 C21         1.1306  -15.1130    2.9211 C.ar      1 <0>        -0.1328
     28 C22         1.5659  -13.8224    3.1416 C.ar      1 <0>        -0.0650
     29 C23        -0.9668  -10.2151    2.5834 C.2       1 <0>         0.4602
     30 O1         -1.6735  -11.1295    2.2086 O.2       1 <0>        -0.4061
     31 H1          1.0047    1.8421    0.0024 H         1 <0>         0.1256
     32 H2         -0.5450    1.8259   -0.8730 H         1 <0>         0.1246
     33 H3         -0.5280    1.8163    0.9069 H         1 <0>         0.1236
     34 H4         -1.8832   -0.1716    0.9134 H         1 <0>         0.1387
     35 H5         -1.9060   -0.1400   -0.8661 H         1 <0>         0.1385
     36 H6         -2.3783   -2.4196    0.0047 H         1 <0>         0.1220
     37 H7         -0.8610   -2.3831   -0.9260 H         1 <0>         0.0691
     38 H8          1.2641   -2.3816    2.0650 H         1 <0>         0.1281
     39 H9          1.2796   -2.3607    0.2848 H         1 <0>         0.0666
     40 H10         1.7310   -0.1020    1.1912 H         1 <0>         0.1401
     41 H11         0.1947   -0.1499    2.0888 H         1 <0>         0.1380
     42 H12        -1.0813   -4.3759    0.3774 H         1 <0>         0.3467
     43 H13        -0.7233   -4.1137    3.2914 H         1 <0>         0.0963
     44 H14        -2.3000   -4.1284    2.4655 H         1 <0>         0.0589
     45 H15        -3.1409   -6.1496    1.4332 H         1 <0>         0.1364
     46 H16        -3.1378   -8.6146    1.4340 H         1 <0>         0.1440
     47 H17         0.6344   -6.1189    3.4214 H         1 <0>         0.1404
     48 H18         4.4138  -10.5340    5.4349 H         1 <0>         0.4226
     49 H19         4.2068   -8.8703    5.3254 H         1 <0>         0.4195
     50 H20        -1.4364  -12.3512    3.7170 H         1 <0>         0.1336
     51 H21        -2.1926  -14.6562    3.3098 H         1 <0>         0.1298
     52 H22        -0.5557  -16.4209    2.8011 H         1 <0>         0.1282
     53 H23         1.8447  -15.8919    2.6982 H         1 <0>         0.1297
     54 H24         2.6195  -13.5906    3.0911 H         1 <0>         0.1295
     55 H25         0.4748   -0.3293   -0.8280 H         1 <0>         0.4240
@<TRIPOS>BOND
     1    1    2 1
     2    1   31 1
     3    1   32 1
     4    1   33 1
     5    2    7 1
     6    2    3 1
     7    2   55 1
     8    3    4 1
     9    3   34 1
    10    3   35 1
    11    4    5 1
    12    4   36 1
    13    4   37 1
    14    5    6 1
    15    5    8 1
    16    6    7 1
    17    6   38 1
    18    6   39 1
    19    7   40 1
    20    7   41 1
    21    8    9 1
    22    8   42 1
    23    9   10 1
    24    9   43 1
    25    9   44 1
    26   10   15 ar
    27   10   11 ar
    28   11   12 ar
    29   11   45 1
    30   12   13 ar
    31   12   46 1
    32   13   29 1
    33   13   14 ar
    34   14   15 ar
    35   14   16 1
    36   15   47 1
    37   16   21 ar
    38   16   17 ar
    39   17   18 ar
    40   17   29 1
    41   18   19 ar
    42   18   23 1
    43   19   20 ar
    44   20   21 ar
    45   20   22 1
    46   22   48 1
    47   22   49 1
    48   23   28 ar
    49   23   24 ar
    50   24   25 ar
    51   24   50 1
    52   25   26 ar
    53   25   51 1
    54   26   27 ar
    55   26   52 1
    56   27   28 ar
    57   27   53 1
    58   28   54 1
    59   29   30 2
