@<TRIPOS>MOLECULE
CHEMBL507754
   50    52     0     0     0
SMALL
USER_CHARGES

@<TRIPOS>ATOM
      1 C1         -0.0187    1.5258    0.0104 C.3       1 <0>        -0.1419
      2 C2          0.0021   -0.0041    0.0020 C.3       1 <0>        -0.1303
      3 C3          0.7182   -0.4975   -1.2568 C.3       1 <0>         0.1278
      4 N1          0.7381   -1.9623   -1.2648 N.am      1 <0>        -0.4933
      5 C4          1.7929   -2.6465   -0.6716 C.2       1 <0>         0.0145
      6 C5          1.7924   -4.0384   -0.6904 C.2       1 <0>        -0.0754
      7 C6          0.7152   -4.7094   -1.3144 C.2       1 <0>         0.5855
      8 O1          0.6855   -5.9268   -1.3471 O.2       1 <0>        -0.5444
      9 N2         -0.2787   -3.9897   -1.8723 N.am      1 <0>        -0.5506
     10 C7         -0.2681   -2.6463   -1.8420 C.2       1 <0>         0.6874
     11 O2         -1.1865   -2.0337   -2.3520 O.2       1 <0>        -0.5729
     12 C8         -1.3944   -4.6853   -2.5186 C.3       1 <0>         0.1180
     13 C9         -2.4980   -4.9441   -1.4910 C.3       1 <0>        -0.1372
     14 C10        -3.6631   -5.6705   -2.1660 C.3       1 <0>        -0.1441
     15 N3          2.9322   -4.4704   -0.0458 N.pl3     1 <0>        -0.5172
     16 H1          3.1901   -5.3958    0.0885 H         1 <0>         0.4099
     17 C11         3.6406   -3.3733    0.3729 C.2       1 <0>        -0.1091
     18 C12         2.9547   -2.2382   -0.0033 C.2       1 <0>         0.2476
     19 O3          3.3375   -0.9527    0.2312 O.3       1 <0>        -0.7040
     20 C13         4.9231   -3.4030    1.1054 C.ar      1 <0>         0.1054
     21 C14         5.1163   -2.5774    2.2148 C.ar      1 <0>        -0.1157
     22 C15         6.3164   -2.6102    2.8942 C.ar      1 <0>        -0.0228
     23 C16         7.3275   -3.4585    2.4785 C.ar      1 <0>        -0.6878
     24 C17         7.1428   -4.2789    1.3796 C.ar      1 <0>        -0.0227
     25 C18         5.9455   -4.2608    0.6948 C.ar      1 <0>        -0.1606
     26 S1          8.8572   -3.4938    3.3521 S.o2      1 <0>         2.5044
     27 O4          9.8125   -3.9265    2.3932 O.2       1 <0>        -0.9474
     28 O5          8.9625   -2.2095    3.9510 O.2       1 <0>        -0.9448
     29 C19         8.6354   -4.7626    4.6295 C.3       1 <0>        -0.6540
     30 H2          1.0039    1.9031    0.0027 H         1 <0>         0.0603
     31 H3         -0.5459    1.8868   -0.8726 H         1 <0>         0.0500
     32 H4         -0.5289    1.8773    0.9072 H         1 <0>         0.0512
     33 H5          0.5293   -0.3651    0.8851 H         1 <0>         0.0710
     34 H6         -1.0205   -0.3814    0.0098 H         1 <0>         0.0542
     35 H7          0.1910   -0.1364   -2.1398 H         1 <0>         0.0780
     36 H8          1.7408   -0.1202   -1.2645 H         1 <0>         0.1083
     37 H9         -1.7877   -4.0687   -3.3268 H         1 <0>         0.0950
     38 H10        -1.0448   -5.6351   -2.9234 H         1 <0>         0.0928
     39 H11        -2.1046   -5.5607   -0.6829 H         1 <0>         0.0655
     40 H12        -2.8475   -3.9943   -1.0863 H         1 <0>         0.0678
     41 H13        -4.0565   -5.0539   -2.9742 H         1 <0>         0.0568
     42 H14        -3.3136   -6.6203   -2.5708 H         1 <0>         0.0559
     43 H15        -4.4494   -5.8549   -1.4339 H         1 <0>         0.0564
     44 H16         4.3282   -1.9146    2.5401 H         1 <0>         0.1373
     45 H17         6.4674   -1.9719    3.7522 H         1 <0>         0.1350
     46 H18         7.9362   -4.9384    1.0603 H         1 <0>         0.1328
     47 H19         5.8008   -4.9054   -0.1595 H         1 <0>         0.1229
     48 H20         8.4190   -5.7204    4.1565 H         1 <0>         0.1288
     49 H21         9.5476   -4.8469    5.2201 H         1 <0>         0.1260
     50 H22         7.8063   -4.4827    5.2794 H         1 <0>         0.1298
@<TRIPOS>BOND
     1    1    2 1
     2    1   30 1
     3    1   31 1
     4    1   32 1
     5    2    3 1
     6    2   33 1
     7    2   34 1
     8    3    4 1
     9    3   35 1
    10    3   36 1
    11    4   10 am
    12    4    5 1
    13    5   18 1
    14    5    6 2
    15    6    7 1
    16    6   15 1
    17    7    8 2
    18    7    9 am
    19    9   10 am
    20    9   12 1
    21   10   11 2
    22   12   13 1
    23   12   37 1
    24   12   38 1
    25   13   14 1
    26   13   39 1
    27   13   40 1
    28   14   41 1
    29   14   42 1
    30   14   43 1
    31   15   16 1
    32   15   17 1
    33   17   18 2
    34   17   20 1
    35   18   19 1
    36   20   25 ar
    37   20   21 ar
    38   21   22 ar
    39   21   44 1
    40   22   23 ar
    41   22   45 1
    42   23   24 ar
    43   23   26 1
    44   24   25 ar
    45   24   46 1
    46   25   47 1
    47   26   27 2
    48   26   28 2
    49   26   29 1
    50   29   48 1
    51   29   49 1
    52   29   50 1
