@<TRIPOS>MOLECULE
CHEMBL393410
   67    72     0     0     0
SMALL
USER_CHARGES

@<TRIPOS>ATOM
      1 C1         -0.0173    1.4248    0.0099 C.3       1 <0>         0.0296
      2 O1          0.0021   -0.0041    0.0020 O.3       1 <0>        -0.3872
      3 C2         -1.2953   -0.6030    0.0112 C.3       1 <0>         0.0588
      4 C3         -1.1538   -2.1264    0.0017 C.3       1 <0>         0.0595
      5 O2         -0.5312   -2.5546    1.2145 O.3       1 <0>        -0.2968
      6 C4         -0.3300   -3.8909    1.3669 C.ar      1 <0>         0.1785
      7 C5         -0.7193   -4.7689    0.3662 C.ar      1 <0>        -0.2147
      8 C6         -0.5153   -6.1267    0.5191 C.ar      1 <0>        -0.0478
      9 C7          0.0796   -6.6133    1.6747 C.ar      1 <0>         0.0670
     10 C8          0.4698   -5.7334    2.6780 C.ar      1 <0>         0.1455
     11 C9          0.2694   -4.3743    2.5205 C.ar      1 <0>        -0.1853
     12 F1          1.0490   -6.2055    3.8036 F         1 <0>        -0.1262
     13 N1          0.2862   -7.9903    1.8304 N.pl3     1 <0>        -0.6674
     14 C10        -0.7405   -8.8443    2.4474 C.3       1 <0>         0.1192
     15 C11        -0.9872  -10.0469    1.5304 C.3       1 <0>        -0.0202
     16 N2          0.2865  -10.7271    1.2635 N.4       1 <0>        -0.3765
     17 C12         1.1818   -9.8363    0.5145 C.3       1 <0>        -0.0297
     18 C13         1.5336   -8.6242    1.3760 C.3       1 <0>         0.1186
     19 C14         0.0355  -11.9413    0.4758 C.3       1 <0>        -0.0299
     20 C15         1.3432  -12.7165    0.3028 C.3       1 <0>         0.1252
     21 N3          1.0928  -13.9274   -0.4828 N.pl3     1 <0>        -0.3743
     22 C16         0.7423  -15.1456    0.0174 C.2       1 <0>         0.3753
     23 C17         0.6057  -16.0049   -1.0835 C.2       1 <0>        -0.2582
     24 C18         0.8864  -15.2530   -2.2384 C.2       1 <0>         0.1533
     25 N4          1.1666  -14.0308   -1.8774 N.2       1 <0>        -0.2685
     26 C19         0.2299  -17.3956   -0.8270 C.2       1 <0>         0.4005
     27 N5          0.0178  -18.4488   -1.5886 N.2       1 <0>        -0.5064
     28 C20        -0.3091  -19.4984   -0.8240 C.2       1 <0>         0.3633
     29 N6         -0.3108  -19.1296    0.4432 N.2       1 <0>        -0.2939
     30 N7          0.0344  -17.7726    0.4763 N.pl3     1 <0>        -0.3787
     31 C21         0.1912  -16.8617    1.4804 C.2       1 <0>         0.7055
     32 N8          0.5277  -15.6156    1.2540 N.2       1 <0>        -0.5792
     33 N9         -0.0112  -17.2671    2.7790 N.pl3     1 <0>        -0.7947
     34 C22        -0.6191  -20.8554   -1.3207 C.2       1 <0>         0.0278
     35 C23        -0.9574  -21.9270   -0.5556 C.2       1 <0>        -0.1275
     36 C24        -1.1655  -23.0059   -1.4376 C.2       1 <0>        -0.2204
     37 C25        -0.9462  -22.5443   -2.6845 C.2       1 <0>         0.0051
     38 O3         -0.6213  -21.2437   -2.6105 O.3       1 <0>        -0.1521
     39 H1          1.0053    1.8021    0.0021 H         1 <0>         0.0908
     40 H2         -0.5445    1.7859   -0.8732 H         1 <0>         0.0448
     41 H3         -0.5275    1.7763    0.9067 H         1 <0>         0.0454
     42 H4         -1.8320   -0.2936    0.9080 H         1 <0>         0.0647
     43 H5         -1.8490   -0.2840   -0.8718 H         1 <0>         0.0774
     44 H6         -2.1404   -2.5824   -0.0809 H         1 <0>         0.0837
     45 H7         -0.5414   -2.4291   -0.8477 H         1 <0>         0.0777
     46 H8         -1.1825   -4.3907   -0.5331 H         1 <0>         0.1404
     47 H9         -0.8190   -6.8095   -0.2605 H         1 <0>         0.1338
     48 H10         0.5759   -3.6896    3.2974 H         1 <0>         0.1503
     49 H11        -0.3923   -9.1909    3.4204 H         1 <0>         0.0811
     50 H12        -1.6646   -8.2786    2.5660 H         1 <0>         0.1177
     51 H13        -1.6742  -10.7396    2.0164 H         1 <0>         0.1378
     52 H14        -1.4203   -9.7046    0.5906 H         1 <0>         0.1322
     53 H15         2.0930  -10.3737    0.2519 H         1 <0>         0.1386
     54 H16         0.6830   -9.5003   -0.3946 H         1 <0>         0.1350
     55 H17         2.1123   -7.9129    0.7866 H         1 <0>         0.1186
     56 H18         2.1153   -8.9482    2.2390 H         1 <0>         0.0809
     57 H19        -0.6917  -12.5666    0.9938 H         1 <0>         0.1368
     58 H20        -0.3553  -11.6648   -0.5035 H         1 <0>         0.1397
     59 H21         2.0704  -12.0912   -0.2152 H         1 <0>         0.1209
     60 H22         1.7339  -12.9930    1.2821 H         1 <0>         0.1180
     61 H23         0.8688  -15.6235   -3.2527 H         1 <0>         0.2092
     62 H24        -0.2605  -18.1854    2.9672 H         1 <0>         0.4313
     63 H25         0.0954  -16.6346    3.5067 H         1 <0>         0.4313
     64 H26        -1.0487  -21.9475    0.5203 H         1 <0>         0.1610
     65 H27        -1.4470  -24.0125   -1.1658 H         1 <0>         0.1623
     66 H28        -1.0229  -23.1235   -3.5929 H         1 <0>         0.2172
     67 H29         0.7209  -10.9804    2.1383 H         1 <0>         0.4243
@<TRIPOS>BOND
     1    1    2 1
     2    1   39 1
     3    1   40 1
     4    1   41 1
     5    2    3 1
     6    3    4 1
     7    3   42 1
     8    3   43 1
     9    4    5 1
    10    4   44 1
    11    4   45 1
    12    5    6 1
    13    6   11 ar
    14    6    7 ar
    15    7    8 ar
    16    7   46 1
    17    8    9 ar
    18    8   47 1
    19    9   10 ar
    20    9   13 1
    21   10   11 ar
    22   10   12 1
    23   11   48 1
    24   13   18 1
    25   13   14 1
    26   14   15 1
    27   14   49 1
    28   14   50 1
    29   15   16 1
    30   15   51 1
    31   15   52 1
    32   16   17 1
    33   16   19 1
    34   16   67 1
    35   17   18 1
    36   17   53 1
    37   17   54 1
    38   18   55 1
    39   18   56 1
    40   19   20 1
    41   19   57 1
    42   19   58 1
    43   20   21 1
    44   20   59 1
    45   20   60 1
    46   21   25 1
    47   21   22 1
    48   22   32 1
    49   22   23 2
    50   23   24 1
    51   23   26 1
    52   24   25 2
    53   24   61 1
    54   26   30 1
    55   26   27 2
    56   27   28 1
    57   28   29 2
    58   28   34 1
    59   29   30 1
    60   30   31 1
    61   31   32 2
    62   31   33 1
    63   33   62 1
    64   33   63 1
    65   34   38 1
    66   34   35 2
    67   35   36 1
    68   35   64 1
    69   36   37 2
    70   36   65 1
    71   37   38 1
    72   37   66 1
