@<TRIPOS>MOLECULE
CHEMBL176229
   65    70     0     0     0
SMALL
USER_CHARGES

@<TRIPOS>ATOM
      1 C1          2.3994    1.4029    0.0030 C.ar      1 <0>        -0.0732
      2 C2          1.2013    2.0888    0.0039 C.ar      1 <0>        -0.1458
      3 C3         -0.0040    1.3876   -0.0038 C.ar      1 <0>        -0.0106
      4 C4          0.0052   -0.0057   -0.0123 C.ar      1 <0>        -0.1504
      5 C5          1.2130   -0.6867   -0.0131 C.ar      1 <0>         0.2135
      6 C6          2.4095    0.0211   -0.0054 C.ar      1 <0>        -0.1795
      7 N1          1.2276   -2.0836   -0.0212 N.pl3     1 <0>        -0.6299
      8 C7          2.4923   -2.8247   -0.1416 C.3       1 <0>         0.1263
      9 C8          2.5577   -3.8621    0.9843 C.3       1 <0>         0.0415
     10 N2          1.3461   -4.6920    0.9522 N.3       1 <0>        -0.5370
     11 C9          0.1430   -3.8885    1.2073 C.3       1 <0>         0.0374
     12 C10        -0.0208   -2.8522    0.0966 C.3       1 <0>         0.1258
     13 C11         1.4461   -5.8068    1.9036 C.3       1 <0>         0.0597
     14 C12         0.2912   -6.7826    1.6691 C.3       1 <0>         0.0588
     15 N3          0.3913   -7.8974    2.6205 N.3       1 <0>        -0.5387
     16 C13         1.5869   -8.7107    2.3553 C.3       1 <0>         0.0150
     17 C14         1.6841   -9.8223    3.4034 C.3       1 <0>         0.0625
     18 O1          0.4840  -10.5999    3.3790 O.3       1 <0>        -0.3849
     19 C15        -0.7000   -9.8394    3.6341 C.3       1 <0>         0.0630
     20 C16        -0.8213   -8.7279    2.5884 C.3       1 <0>         0.0190
     21 C17        -1.2912    2.1223   -0.0025 C.2       1 <0>         0.2524
     22 C18        -1.2966    3.5055    0.0007 C.2       1 <0>        -0.2145
     23 C19        -2.5361    4.1706    0.0014 C.2       1 <0>         0.3533
     24 N4         -2.8886    5.4466    0.0041 N.2       1 <0>        -0.5239
     25 C20        -4.2220    5.5429    0.0036 C.2       1 <0>         0.3536
     26 N5         -4.7487    4.3315    0.0005 N.2       1 <0>        -0.3220
     27 N6         -3.6846    3.4206   -0.0010 N.pl3     1 <0>        -0.3616
     28 C21        -3.6091    2.0607   -0.0036 C.2       1 <0>         0.6527
     29 N7         -2.4494    1.4444   -0.0099 N.2       1 <0>        -0.5485
     30 N8         -4.7679    1.3199   -0.0056 N.pl3     1 <0>        -0.8082
     31 C22        -4.9872    6.8074    0.0067 C.2       1 <0>         0.0368
     32 C23        -4.4586    8.0598    0.0048 C.2       1 <0>        -0.1269
     33 C24        -5.5438    8.9584    0.0092 C.2       1 <0>        -0.2189
     34 C25        -6.6696    8.2177    0.0136 C.2       1 <0>        -0.0080
     35 O2         -6.3296    6.9189    0.0062 O.3       1 <0>        -0.1608
     36 H1          3.3318    1.9480    0.0045 H         1 <0>         0.1291
     37 H2          1.1976    3.1688    0.0108 H         1 <0>         0.1288
     38 H3         -0.9256   -0.5536   -0.0180 H         1 <0>         0.1363
     39 H4          3.3496   -0.5105   -0.0063 H         1 <0>         0.1256
     40 H5          2.5306   -3.3292   -1.1070 H         1 <0>         0.0712
     41 H6          3.3311   -2.1343   -0.0526 H         1 <0>         0.0879
     42 H7          3.4351   -4.4939    0.8462 H         1 <0>         0.0857
     43 H8          2.6239   -3.3521    1.9454 H         1 <0>         0.0402
     44 H9         -0.7309   -4.5396    1.2308 H         1 <0>         0.0868
     45 H10         0.2428   -3.3782    2.1652 H         1 <0>         0.0400
     46 H11        -0.8428   -2.1801    0.3431 H         1 <0>         0.0879
     47 H12        -0.2288   -3.3595   -0.8455 H         1 <0>         0.0697
     48 H13         2.3943   -6.3244    1.7583 H         1 <0>         0.0761
     49 H14         1.3949   -5.4212    2.9218 H         1 <0>         0.0442
     50 H15        -0.6570   -6.2649    1.8144 H         1 <0>         0.0762
     51 H16         0.3424   -7.1682    0.6509 H         1 <0>         0.0460
     52 H17         1.5133   -9.1527    1.3616 H         1 <0>         0.0453
     53 H18         2.4749   -8.0808    2.4093 H         1 <0>         0.0873
     54 H19         2.5371  -10.4622    3.1773 H         1 <0>         0.0991
     55 H20         1.8116   -9.3806    4.3917 H         1 <0>         0.0599
     56 H21        -1.5713  -10.4916    3.5749 H         1 <0>         0.0995
     57 H22        -0.6418   -9.3982    4.6292 H         1 <0>         0.0602
     58 H23        -1.6913   -8.1106    2.8125 H         1 <0>         0.0864
     59 H24        -0.9334   -9.1702    1.5984 H         1 <0>         0.0448
     60 H25        -0.3709    4.0618    0.0029 H         1 <0>         0.1686
     61 H26        -5.6291    1.7664   -0.0051 H         1 <0>         0.4243
     62 H27        -4.7241    0.3509   -0.0075 H         1 <0>         0.4289
     63 H28        -3.4095    8.3163    0.0010 H         1 <0>         0.1633
     64 H29        -5.4846   10.0367    0.0091 H         1 <0>         0.1596
     65 H30        -7.6779    8.6047    0.0179 H         1 <0>         0.2133
@<TRIPOS>BOND
     1    1    6 ar
     2    1    2 ar
     3    1   36 1
     4    2    3 ar
     5    2   37 1
     6    3    4 ar
     7    3   21 1
     8    4    5 ar
     9    4   38 1
    10    5    6 ar
    11    5    7 1
    12    6   39 1
    13    7   12 1
    14    7    8 1
    15    8    9 1
    16    8   40 1
    17    8   41 1
    18    9   10 1
    19    9   42 1
    20    9   43 1
    21   10   11 1
    22   10   13 1
    23   11   12 1
    24   11   44 1
    25   11   45 1
    26   12   46 1
    27   12   47 1
    28   13   14 1
    29   13   48 1
    30   13   49 1
    31   14   15 1
    32   14   50 1
    33   14   51 1
    34   15   20 1
    35   15   16 1
    36   16   17 1
    37   16   52 1
    38   16   53 1
    39   17   18 1
    40   17   54 1
    41   17   55 1
    42   18   19 1
    43   19   20 1
    44   19   56 1
    45   19   57 1
    46   20   58 1
    47   20   59 1
    48   21   29 1
    49   21   22 2
    50   22   23 1
    51   22   60 1
    52   23   27 1
    53   23   24 2
    54   24   25 1
    55   25   26 2
    56   25   31 1
    57   26   27 1
    58   27   28 1
    59   28   29 2
    60   28   30 1
    61   30   61 1
    62   30   62 1
    63   31   35 1
    64   31   32 2
    65   32   33 1
    66   32   63 1
    67   33   34 2
    68   33   64 1
    69   34   35 1
    70   34   65 1
