@<TRIPOS>MOLECULE
CHEMBL487554
   52    55     0     0     0
SMALL
USER_CHARGES

@<TRIPOS>ATOM
      1 C1         -0.2209    1.6518   -0.8057 C.3       1 <0>        -0.0736
      2 C2         -0.0893    0.1685   -0.5746 C.2       1 <0>         0.0911
      3 C3         -0.2434   -0.8286   -1.5451 C.2       1 <0>        -0.2648
      4 C4         -0.0487   -2.0261   -0.9477 C.2       1 <0>         0.1210
      5 N1          0.2209   -1.7922    0.3638 N.pl3     1 <0>        -0.3186
      6 N2          0.1938   -0.4061    0.5656 N.2       1 <0>        -0.2611
      7 C5          0.4826   -2.7592    1.3345 C.ar      1 <0>         0.5969
      8 N3          0.5922   -2.3879    2.5983 N.ar      1 <0>        -0.5192
      9 C6          0.8412   -3.2828    3.5534 C.ar      1 <0>         0.2716
     10 C7          0.9858   -4.6236    3.2029 C.ar      1 <0>        -0.2423
     11 C8          0.8630   -4.9731    1.8594 C.ar      1 <0>         0.4327
     12 N4          0.6089   -4.0234    0.9652 N.ar      1 <0>        -0.5281
     13 N5          0.9993   -6.2984    1.4606 N.am      1 <0>        -0.6534
     14 C9          0.9840   -6.6128    0.1501 C.2       1 <0>         0.5012
     15 O1          0.7588   -5.7547   -0.6767 O.2       1 <0>        -0.4689
     16 C10         1.2468   -8.0306   -0.2878 C.3       1 <0>        -0.1685
     17 C11         0.9632   -2.8577    4.9700 C.ar      1 <0>         0.1999
     18 C12         0.8105   -1.5153    5.3019 C.ar      1 <0>        -0.1742
     19 C13         0.9259   -1.1283    6.6285 C.ar      1 <0>        -0.0380
     20 C14         1.1905   -2.0973    7.5805 C.ar      1 <0>        -0.2115
     21 C15         1.3322   -3.4238    7.1812 C.ar      1 <0>         0.4450
     22 N6          1.2116   -3.7627    5.9087 N.ar      1 <0>        -0.5260
     23 N7          1.5984   -4.4029    8.1311 N.pl3     1 <0>        -0.6389
     24 C16         1.9032   -5.8416    8.1123 C.3       1 <0>         0.1135
     25 C17         2.6589   -5.6436    9.4336 C.3       1 <0>         0.0468
     26 C18         1.7058   -4.4549    9.5969 C.3       1 <0>         0.0999
     27 O2          4.0297   -5.2725    9.2746 O.3       1 <0>        -0.3588
     28 C19         4.8802   -5.7238   10.3305 C.3       1 <0>         0.0279
     29 C20        -0.1188   -3.3755   -1.6149 C.3       1 <0>        -0.0818
     30 H1          0.7495    2.0639   -1.0824 H         1 <0>         0.0814
     31 H2         -0.9348    1.8324   -1.6094 H         1 <0>         0.0819
     32 H3         -0.5726    2.1321    0.1074 H         1 <0>         0.0763
     33 H4         -0.4767   -0.6695   -2.5876 H         1 <0>         0.1583
     34 H5          1.1885   -5.3732    3.9536 H         1 <0>         0.1638
     35 H6          1.1053   -6.9966    2.1256 H         1 <0>         0.4251
     36 H7          1.4271   -8.6539    0.5880 H         1 <0>         0.0792
     37 H8          0.3813   -8.4094   -0.8314 H         1 <0>         0.1020
     38 H9          2.1222   -8.0541   -0.9369 H         1 <0>         0.1022
     39 H10         0.6048   -0.7830    4.5351 H         1 <0>         0.1488
     40 H11         0.8121   -0.0926    6.9127 H         1 <0>         0.1414
     41 H12         1.2864   -1.8275    8.6218 H         1 <0>         0.1321
     42 H13         1.0203   -6.4736    8.2077 H         1 <0>         0.0921
     43 H14         2.5470   -6.1381    7.2842 H         1 <0>         0.0840
     44 H15         2.5080   -6.4431   10.1589 H         1 <0>         0.1009
     45 H16         2.1821   -3.5747   10.0288 H         1 <0>         0.0815
     46 H17         0.7698   -4.7138   10.0918 H         1 <0>         0.0928
     47 H18         4.5404   -5.3018   11.2763 H         1 <0>         0.0452
     48 H19         4.8459   -6.8119   10.3848 H         1 <0>         0.0462
     49 H20         5.9033   -5.4018   10.1358 H         1 <0>         0.0896
     50 H21         0.8848   -3.6938   -1.8974 H         1 <0>         0.0848
     51 H22        -0.5489   -4.1006   -0.9240 H         1 <0>         0.0992
     52 H23        -0.7429   -3.3082   -2.5061 H         1 <0>         0.0712
@<TRIPOS>BOND
     1    1    2 1
     2    1   30 1
     3    1   31 1
     4    1   32 1
     5    2    6 2
     6    2    3 1
     7    3    4 2
     8    3   33 1
     9    4    5 1
    10    4   29 1
    11    5    6 1
    12    5    7 1
    13    7   12 ar
    14    7    8 ar
    15    8    9 ar
    16    9   10 ar
    17    9   17 1
    18   10   11 ar
    19   10   34 1
    20   11   12 ar
    21   11   13 1
    22   13   14 am
    23   13   35 1
    24   14   15 2
    25   14   16 1
    26   16   36 1
    27   16   37 1
    28   16   38 1
    29   17   22 ar
    30   17   18 ar
    31   18   19 ar
    32   18   39 1
    33   19   20 ar
    34   19   40 1
    35   20   21 ar
    36   20   41 1
    37   21   22 ar
    38   21   23 1
    39   23   26 1
    40   23   24 1
    41   24   25 1
    42   24   42 1
    43   24   43 1
    44   25   26 1
    45   25   27 1
    46   25   44 1
    47   26   45 1
    48   26   46 1
    49   27   28 1
    50   28   47 1
    51   28   48 1
    52   28   49 1
    53   29   50 1
    54   29   51 1
    55   29   52 1
