@<TRIPOS>MOLECULE
CHEMBL222145
   59    64     0     0     0
SMALL
USER_CHARGES

@<TRIPOS>ATOM
      1 C1         -0.0162    1.3433    0.0094 C.2       1 <0>        -0.2193
      2 C2          1.3252    1.7744   -0.0011 C.2       1 <0>        -0.1216
      3 C3          2.0963    0.6547   -0.0144 C.2       1 <0>         0.0282
      4 O1          1.2798   -0.4167   -0.0124 O.3       1 <0>        -0.1601
      5 C4          0.0021   -0.0041    0.0020 C.2       1 <0>         0.0000
      6 C5          3.5735    0.6192   -0.0292 C.2       1 <0>         0.3440
      7 N1          4.3782    1.6975   -0.0257 N.2       1 <0>        -0.4817
      8 C6          5.6284    1.3133   -0.0438 C.2       1 <0>         0.4993
      9 N2          6.7827    2.0136   -0.0426 N.2       1 <0>        -0.5259
     10 C7          7.9149    1.3544   -0.2245 C.2       1 <0>         0.6717
     11 N3          7.9251    0.0030   -0.4737 N.pl3     1 <0>        -0.6597
     12 C8          6.8335   -0.7612   -0.0614 C.2       1 <0>         0.6288
     13 N4          5.6350   -0.0666   -0.0535 N.pl3     1 <0>        -0.4290
     14 N5          4.3125   -0.4776   -0.0421 N.2       1 <0>        -0.2734
     15 N6          6.9320   -2.0133    0.2840 N.2       1 <0>        -0.6687
     16 N7          9.1029    2.0335   -0.1638 N.pl3     1 <0>        -0.5969
     17 C9         10.3866    1.3423   -0.3661 C.3       1 <0>         0.0877
     18 C10        11.3005    1.6893    0.8113 C.3       1 <0>        -0.0203
     19 N8         11.4311    3.1501    0.9330 N.4       1 <0>        -0.3843
     20 C11        12.3915    3.4256    2.0122 C.3       1 <0>         0.0035
     21 C12        12.6152    4.9311    2.1496 C.3       1 <0>        -0.1270
     22 H1         13.3336    5.1226    2.9467 H         1 <0>         0.1301
     23 C13        11.2787    5.5987    2.4911 C.3       1 <0>        -0.1304
     24 C14        10.2734    5.2712    1.3860 C.3       1 <0>        -0.1426
     25 C15        10.1305    3.7519    1.2449 C.3       1 <0>         0.0171
     26 H2          9.7485    3.3332    2.1760 H         1 <0>         0.1476
     27 C16         9.1400    3.4780    0.0994 C.3       1 <0>         0.1091
     28 C17        13.1504    5.4926    0.8309 C.3       1 <0>         0.1322
     29 N9         13.4764    6.9108    1.0005 N.pl3     1 <0>        -0.7019
     30 C18        13.9809    7.6371   -0.0643 C.ar      1 <0>         0.5552
     31 N10        14.1577    7.0356   -1.2315 N.ar      1 <0>        -0.5749
     32 C19        14.6375    7.7009   -2.2692 C.ar      1 <0>         0.1903
     33 C20        14.9558    9.0421   -2.1239 C.ar      1 <0>        -0.2766
     34 C21        14.7584    9.6400   -0.8892 C.ar      1 <0>         0.1974
     35 N11        14.2704    8.9187    0.1064 N.ar      1 <0>        -0.5647
     36 H3         -0.8931    1.9736    0.0252 H         1 <0>         0.1617
     37 H4          1.6735    2.7967    0.0011 H         1 <0>         0.1634
     38 H5         -0.8667   -0.6456    0.0069 H         1 <0>         0.2158
     39 H6          6.1427   -2.5028    0.5637 H         1 <0>         0.3848
     40 H7         10.2237    0.2651   -0.4012 H         1 <0>         0.1284
     41 H8         10.8427    1.6772   -1.2978 H         1 <0>         0.1147
     42 H9         10.8752    1.2862    1.7304 H         1 <0>         0.1396
     43 H10        12.2846    1.2505    0.6469 H         1 <0>         0.1542
     44 H11        12.0025    3.0313    2.9510 H         1 <0>         0.1382
     45 H12        13.3399    2.9391    1.7844 H         1 <0>         0.1389
     46 H13        10.9121    5.2172    3.4440 H         1 <0>         0.0909
     47 H14        11.4145    6.6783    2.5540 H         1 <0>         0.0995
     48 H15         9.3052    5.7042    1.6374 H         1 <0>         0.1212
     49 H16        10.6225    5.6913    0.4427 H         1 <0>         0.0946
     50 H17         9.4634    4.0037   -0.7990 H         1 <0>         0.1052
     51 H18         8.1461    3.8217    0.3858 H         1 <0>         0.1530
     52 H19        14.0476    4.9458    0.5406 H         1 <0>         0.0783
     53 H20        12.3921    5.3844    0.0554 H         1 <0>         0.0607
     54 H21        13.3387    7.3408    1.8590 H         1 <0>         0.4182
     55 H22        14.7797    7.2051   -3.2180 H         1 <0>         0.1709
     56 H23        15.3494    9.6088   -2.9548 H         1 <0>         0.1507
     57 H24        14.9967   10.6832   -0.7428 H         1 <0>         0.1733
     58 H25         8.6760   -0.4109   -0.9272 H         1 <0>         0.4372
     59 H26        11.7789    3.5306    0.0656 H         1 <0>         0.4234
@<TRIPOS>BOND
     1    1    5 2
     2    1    2 1
     3    1   36 1
     4    2    3 2
     5    2   37 1
     6    3    4 1
     7    3    6 1
     8    4    5 1
     9    5   38 1
    10    6   14 2
    11    6    7 1
    12    7    8 2
    13    8   13 1
    14    8    9 1
    15    9   10 2
    16   10   11 1
    17   10   16 1
    18   11   12 1
    19   11   58 1
    20   12   13 1
    21   12   15 2
    22   13   14 1
    23   15   39 1
    24   16   27 1
    25   16   17 1
    26   17   18 1
    27   17   40 1
    28   17   41 1
    29   18   19 1
    30   18   42 1
    31   18   43 1
    32   19   25 1
    33   19   20 1
    34   19   59 1
    35   20   21 1
    36   20   44 1
    37   20   45 1
    38   21   22 1
    39   21   23 1
    40   21   28 1
    41   23   24 1
    42   23   46 1
    43   23   47 1
    44   24   25 1
    45   24   48 1
    46   24   49 1
    47   25   26 1
    48   25   27 1
    49   27   50 1
    50   27   51 1
    51   28   29 1
    52   28   52 1
    53   28   53 1
    54   29   30 1
    55   29   54 1
    56   30   35 ar
    57   30   31 ar
    58   31   32 ar
    59   32   33 ar
    60   32   55 1
    61   33   34 ar
    62   33   56 1
    63   34   35 ar
    64   34   57 1
