@<TRIPOS>MOLECULE
CHEMBL327708
   62    65     0     0     0
SMALL
USER_CHARGES

@<TRIPOS>ATOM
      1 C1         -0.0187    1.5258    0.0104 C.3       1 <0>        -0.1476
      2 C2          0.0021   -0.0041    0.0020 C.3       1 <0>        -0.1375
      3 C3         -1.4333   -0.5336    0.0129 C.3       1 <0>         0.1134
      4 N1         -1.4134   -1.9985    0.0048 N.am      1 <0>        -0.5480
      5 C4         -1.4101   -2.6566   -1.1731 C.2       1 <0>         0.5937
      6 O1         -1.4231   -2.0399   -2.2234 O.2       1 <0>        -0.5097
      7 C5         -1.3909   -4.0680   -1.1740 C.2       1 <0>        -0.1519
      8 C6         -1.3760   -4.7455    0.0387 C.2       1 <0>         0.3225
      9 N2         -1.3595   -6.0519   -0.2379 N.2       1 <0>        -0.4910
     10 H1         -1.3884   -4.8858   -3.1159 H         1 <0>         0.4353
     11 C7         -1.3633   -6.2307   -1.5343 C.2       1 <0>         0.3091
     12 N3         -1.3824   -5.0365   -2.1577 N.pl3     1 <0>        -0.5122
     13 C8         -1.3476   -7.5699   -2.2252 C.3       1 <0>        -0.0171
     14 C9         -0.5833   -7.4663   -3.5612 C.3       1 <0>        -0.1245
     15 C10        -1.3699   -8.3925   -4.5217 C.3       1 <0>        -0.1244
     16 C11        -2.8415   -8.1438   -4.1074 C.3       1 <0>        -0.1289
     17 C12        -2.7834   -8.0007   -2.5725 C.3       1 <0>        -0.1170
     18 N4         -1.3803   -4.0123    1.2144 N.am      1 <0>        -0.5067
     19 C13        -1.3933   -2.6667    1.1710 C.2       1 <0>         0.7086
     20 O2         -1.3920   -2.0401    2.2131 O.2       1 <0>        -0.5273
     21 C14        -1.3653   -4.7023    2.5066 C.3       1 <0>         0.1247
     22 C15         0.0823   -4.9234    2.9499 C.3       1 <0>        -0.1355
     23 C16         0.0980   -5.6439    4.2995 C.3       1 <0>         0.0726
     24 O3          1.4500   -5.8504    4.7136 O.3       1 <0>        -0.3427
     25 C17         1.6402   -6.4770    5.8908 C.2       1 <0>         0.5060
     26 O4          0.6846   -6.8383    6.5479 O.2       1 <0>        -0.4865
     27 C18         3.0110   -6.7249    6.3826 C.ar      1 <0>        -0.0641
     28 C19         4.1116   -6.3058    5.6326 C.ar      1 <0>        -0.0751
     29 C20         5.3889   -6.5405    6.0978 C.ar      1 <0>        -0.0476
     30 C21         5.5807   -7.1895    7.3046 C.ar      1 <0>        -0.6543
     31 C22         4.4945   -7.6078    8.0527 C.ar      1 <0>        -0.0190
     32 C23         3.2117   -7.3741    7.6024 C.ar      1 <0>        -0.0678
     33 S1          7.2157   -7.4851    7.8913 S.o2      1 <0>         2.6706
     34 O5          7.5771   -6.3551    8.6733 O.2       1 <0>        -0.9145
     35 O6          7.2274   -8.8072    8.4120 O.2       1 <0>        -0.9171
     36 F1          8.1886   -7.4872    6.6085 F         1 <0>        -0.4657
     37 H2          1.0039    1.9031    0.0027 H         1 <0>         0.0618
     38 H3         -0.5459    1.8868   -0.8726 H         1 <0>         0.0591
     39 H4         -0.5289    1.8773    0.9072 H         1 <0>         0.0600
     40 H5          0.5123   -0.3556   -0.8948 H         1 <0>         0.0673
     41 H6          0.5293   -0.3651    0.8851 H         1 <0>         0.0691
     42 H7         -1.9435   -0.1821    0.9097 H         1 <0>         0.1040
     43 H8         -1.9605   -0.1726   -0.8702 H         1 <0>         0.1019
     44 H9         -0.8790   -8.3156   -1.5830 H         1 <0>         0.1179
     45 H10        -0.5932   -6.4398   -3.9278 H         1 <0>         0.0623
     46 H11         0.4408   -7.8204   -3.4433 H         1 <0>         0.0824
     47 H12        -1.2063   -8.1014   -5.5593 H         1 <0>         0.0740
     48 H13        -1.0951   -9.4354   -4.3640 H         1 <0>         0.0763
     49 H14        -3.2161   -7.2268   -4.5621 H         1 <0>         0.0667
     50 H15        -3.4654   -8.9924   -4.3880 H         1 <0>         0.0745
     51 H16        -3.0113   -8.9559   -2.0995 H         1 <0>         0.0825
     52 H17        -3.4915   -7.2412   -2.2412 H         1 <0>         0.0685
     53 H18        -1.8838   -4.0952    3.2487 H         1 <0>         0.1062
     54 H19        -1.8668   -5.6652    2.4102 H         1 <0>         0.1047
     55 H20         0.6009   -5.5304    2.2079 H         1 <0>         0.0834
     56 H21         0.5838   -3.9604    3.0463 H         1 <0>         0.0836
     57 H22        -0.4206   -5.0369    5.0416 H         1 <0>         0.0779
     58 H23        -0.4035   -6.6069    4.2031 H         1 <0>         0.0780
     59 H24         3.9633   -5.7995    4.6903 H         1 <0>         0.1544
     60 H25         6.2411   -6.2172    5.5185 H         1 <0>         0.1498
     61 H26         4.6512   -8.1145    8.9936 H         1 <0>         0.1549
     62 H27         2.3647   -7.6968    8.1896 H         1 <0>         0.1560
@<TRIPOS>BOND
     1    1    2 1
     2    1   37 1
     3    1   38 1
     4    1   39 1
     5    2    3 1
     6    2   40 1
     7    2   41 1
     8    3   42 1
     9    3   43 1
    10    3    4 1
    11    4   19 am
    12    4    5 am
    13    5    6 2
    14    5    7 1
    15    7   12 1
    16    7    8 2
    17    8    9 1
    18    8   18 1
    19    9   11 2
    20   10   12 1
    21   11   12 1
    22   11   13 1
    23   13   17 1
    24   13   14 1
    25   13   44 1
    26   14   15 1
    27   14   45 1
    28   14   46 1
    29   15   16 1
    30   15   47 1
    31   15   48 1
    32   16   17 1
    33   16   49 1
    34   16   50 1
    35   17   51 1
    36   17   52 1
    37   18   21 1
    38   18   19 am
    39   19   20 2
    40   21   22 1
    41   21   53 1
    42   21   54 1
    43   22   23 1
    44   22   55 1
    45   22   56 1
    46   23   24 1
    47   23   57 1
    48   23   58 1
    49   24   25 1
    50   25   26 2
    51   25   27 1
    52   27   32 ar
    53   27   28 ar
    54   28   29 ar
    55   28   59 1
    56   29   30 ar
    57   29   60 1
    58   30   31 ar
    59   30   33 1
    60   31   32 ar
    61   31   61 1
    62   32   62 1
    63   33   34 2
    64   33   35 2
    65   33   36 1
