@<TRIPOS>MOLECULE
CHEMBL130830
   54    57     0     0     0
SMALL
USER_CHARGES

@<TRIPOS>ATOM
      1 C1         -0.0187    1.5258    0.0104 C.3       1 <0>        -0.1677
      2 C2          0.0021   -0.0041    0.0020 C.3       1 <0>         0.1136
      3 N1         -1.3723   -0.5112    0.0124 N.am      1 <0>        -0.7277
      4 C3         -1.6006   -1.8394    0.0075 C.2       1 <0>         0.5158
      5 O1         -0.6682   -2.6149   -0.0056 O.2       1 <0>        -0.5031
      6 C4         -3.0144   -2.3611    0.0182 C.3       1 <0>         0.0321
      7 H1         -3.5805   -1.9494   -0.8174 H         1 <0>         0.1209
      8 C5         -3.7084   -2.0293    1.3638 C.3       1 <0>         0.0506
      9 H2         -3.0081   -2.1165    2.1945 H         1 <0>         0.0946
     10 C6         -4.8001   -3.1239    1.4442 C.3       1 <0>         0.0832
     11 H3         -4.8843   -3.5048    2.4620 H         1 <0>         0.0899
     12 C7         -4.2978   -4.2288    0.4946 C.3       1 <0>         0.3167
     13 H4         -5.0029   -4.3610   -0.3260 H         1 <0>         0.1285
     14 O2         -3.0242   -3.8042   -0.0230 O.3       1 <0>        -0.3266
     15 N2         -4.1477   -5.4871    1.2297 N.pl3     1 <0>        -0.4787
     16 C8         -3.0008   -5.9569    1.8003 C.2       1 <0>         0.2486
     17 N3         -3.2267   -7.1034    2.3721 N.2       1 <0>        -0.4493
     18 C9         -4.5290   -7.4419    2.2057 C.ar      1 <0>        -0.1527
     19 C10        -5.1358   -6.4064    1.4757 C.ar      1 <0>         0.3563
     20 N4         -6.4289   -6.4937    1.1805 N.ar      1 <0>        -0.6079
     21 C11        -7.1392   -7.5399    1.5700 C.ar      1 <0>         0.6344
     22 N5         -6.6075   -8.5385    2.2633 N.ar      1 <0>        -0.6212
     23 C12        -5.3210   -8.5359    2.5945 C.ar      1 <0>         0.5447
     24 N6         -4.7758   -9.5810    3.3191 N.pl3     1 <0>        -0.8154
     25 N7         -8.4842   -7.5943    1.2433 N.pl3     1 <0>        -0.6882
     26 C13        -9.2940   -8.7410    1.6621 C.3       1 <0>         0.1655
     27 H5         -8.9522   -9.1053    2.6309 H         1 <0>         0.1087
     28 C14        -9.1998   -9.8664    0.6112 C.3       1 <0>        -0.1312
     29 C15       -10.6231  -10.4766    0.5793 C.3       1 <0>        -0.1214
     30 C16       -11.5319   -9.2324    0.7379 C.3       1 <0>        -0.1556
     31 C17       -10.7767   -8.3376    1.7439 C.3       1 <0>         0.0927
     32 H6        -10.8937   -7.2885    1.4720 H         1 <0>         0.0628
     33 O3        -11.2721   -8.5595    3.0658 O.3       1 <0>        -0.5596
     34 O4         -6.0569   -2.6106    0.9981 O.3       1 <0>        -0.5323
     35 O5         -4.2936   -0.7261    1.3280 O.3       1 <0>        -0.5369
     36 H7          1.0039    1.9031    0.0027 H         1 <0>         0.0790
     37 H8         -0.5459    1.8868   -0.8726 H         1 <0>         0.0643
     38 H9         -0.5289    1.8773    0.9072 H         1 <0>         0.0636
     39 H10         0.5123   -0.3556   -0.8948 H         1 <0>         0.0729
     40 H11         0.5293   -0.3651    0.8851 H         1 <0>         0.0727
     41 H12        -2.1181    0.1091    0.0229 H         1 <0>         0.3977
     42 H13        -2.0464   -5.4520    1.7797 H         1 <0>         0.2209
     43 H14        -3.8374   -9.5637    3.5640 H         1 <0>         0.4203
     44 H15        -5.3319  -10.3310    3.5820 H         1 <0>         0.4097
     45 H16        -8.8899   -6.8730    0.7372 H         1 <0>         0.4128
     46 H17        -8.9385   -9.4565   -0.3644 H         1 <0>         0.0709
     47 H18        -8.4703  -10.6157    0.9189 H         1 <0>         0.0766
     48 H19       -10.8096  -10.9723   -0.3733 H         1 <0>         0.0701
     49 H20       -10.7658  -11.1676    1.4101 H         1 <0>         0.0731
     50 H21       -11.6473   -8.7201   -0.2172 H         1 <0>         0.0758
     51 H22       -12.5044   -9.5189    1.1382 H         1 <0>         0.0753
     52 H23       -12.2028   -8.3240    3.1816 H         1 <0>         0.3813
     53 H24        -6.3912   -1.8738    1.5276 H         1 <0>         0.3956
     54 H25        -3.6563   -0.0124    1.1882 H         1 <0>         0.3836
@<TRIPOS>BOND
     1    1    2 1
     2    1   36 1
     3    1   37 1
     4    1   38 1
     5    2    3 1
     6    2   39 1
     7    2   40 1
     8    3    4 am
     9    3   41 1
    10    4    5 2
    11    4    6 1
    12    6    7 1
    13    6   14 1
    14    6    8 1
    15    8    9 1
    16    8   10 1
    17    8   35 1
    18   10   11 1
    19   10   12 1
    20   10   34 1
    21   12   13 1
    22   12   14 1
    23   12   15 1
    24   15   19 1
    25   15   16 1
    26   16   17 2
    27   16   42 1
    28   17   18 1
    29   18   23 ar
    30   18   19 ar
    31   19   20 ar
    32   20   21 ar
    33   21   22 ar
    34   21   25 1
    35   22   23 ar
    36   23   24 1
    37   24   43 1
    38   24   44 1
    39   25   26 1
    40   25   45 1
    41   26   27 1
    42   26   31 1
    43   26   28 1
    44   28   29 1
    45   28   46 1
    46   28   47 1
    47   29   30 1
    48   29   48 1
    49   29   49 1
    50   30   31 1
    51   30   50 1
    52   30   51 1
    53   31   32 1
    54   31   33 1
    55   33   52 1
    56   34   53 1
    57   35   54 1
