@<TRIPOS>MOLECULE
CHEMBL270136
   51    54     0     0     0
SMALL
USER_CHARGES

@<TRIPOS>ATOM
      1 C1         -0.0101    1.4637    0.0072 C.3       1 <0>        -0.0458
      2 N1          0.0088   -0.0052   -0.0002 N.4       1 <0>        -0.3893
      3 C2         -1.3697   -0.5123    0.0073 C.3       1 <0>        -0.0014
      4 C3         -1.3507   -2.0422   -0.0195 C.3       1 <0>         0.0266
      5 N2         -0.6205   -2.5409    1.1545 N.3       1 <0>        -0.5231
      6 C4          0.7541   -2.0212    1.1738 C.3       1 <0>         0.0177
      7 C5          0.7178   -0.4915    1.1907 C.3       1 <0>         0.0007
      8 C6         -0.6288   -4.0093    1.1950 C.3       1 <0>         0.0374
      9 C7         -0.0926   -4.4782    2.5230 C.2       1 <0>         0.5056
     10 O1          0.2615   -3.6690    3.3538 O.2       1 <0>        -0.4498
     11 N3         -0.0067   -5.7970    2.7874 N.am      1 <0>        -0.6530
     12 C8          0.5851   -6.2324    3.9683 C.ar      1 <0>         0.4077
     13 C9          0.7738   -7.5944    4.2034 C.ar      1 <0>        -0.2260
     14 C10         1.3713   -7.9848    5.4005 C.ar      1 <0>         0.2552
     15 N4          1.7401   -7.0511    6.2749 N.ar      1 <0>        -0.5188
     16 C11         1.5444   -5.7643    6.0168 C.ar      1 <0>         0.4412
     17 N5          0.9824   -5.3570    4.8836 N.ar      1 <0>        -0.5005
     18 C12         1.9670   -4.7594    7.0112 C.2       1 <0>        -0.1314
     19 C13         1.8596   -3.3939    6.9586 C.2       1 <0>        -0.0881
     20 C14         2.3292   -2.6522    8.0175 C.2       1 <0>        -0.1738
     21 C15         2.8838   -3.2925    9.0807 C.2       1 <0>        -0.1595
     22 S1          2.7441   -5.0060    8.5996 S.3       1 <0>         0.1251
     23 C16         1.5931   -9.4222    5.6966 C.ar      1 <0>         0.1448
     24 C17         2.1864   -9.7957    6.9000 C.ar      1 <0>        -0.1173
     25 C18         2.3869  -11.1405    7.1624 C.ar      1 <0>        -0.0785
     26 C19         1.9867  -12.0674    6.2110 C.ar      1 <0>        -0.1499
     27 C20         1.4035  -11.6254    5.0370 C.ar      1 <0>         0.1018
     28 N6          1.2197  -10.3404    4.8153 N.ar      1 <0>        -0.4666
     29 H1          1.0128    1.8403    0.0004 H         1 <0>         0.1244
     30 H2         -0.5362    1.8248   -0.8765 H         1 <0>         0.1243
     31 H3         -0.5209    1.8159    0.9034 H         1 <0>         0.1235
     32 H4         -1.8775   -0.1710    0.9093 H         1 <0>         0.1391
     33 H5         -1.8985   -0.1401   -0.8702 H         1 <0>         0.1379
     34 H6         -2.3733   -2.4191    0.0011 H         1 <0>         0.1261
     35 H7         -0.8550   -2.3839   -0.9282 H         1 <0>         0.0636
     36 H8          1.2671   -2.3827    2.0650 H         1 <0>         0.1393
     37 H9          1.2845   -2.3626    0.2848 H         1 <0>         0.0582
     38 H10         1.7365   -0.1038    1.1907 H         1 <0>         0.1364
     39 H11         0.1993   -0.1503    2.0868 H         1 <0>         0.1402
     40 H12        -1.6493   -4.3705    1.0672 H         1 <0>         0.1231
     41 H13        -0.0024   -4.3985    0.3924 H         1 <0>         0.0825
     42 H14        -0.3575   -6.4425    2.1540 H         1 <0>         0.4251
     43 H15         0.4639   -8.3291    3.4751 H         1 <0>         0.1630
     44 H16         1.4150   -2.9095    6.1018 H         1 <0>         0.1453
     45 H17         2.2586   -1.5746    8.0043 H         1 <0>         0.1391
     46 H18         3.2979   -2.8729    9.9855 H         1 <0>         0.1929
     47 H19         2.4862   -9.0470    7.6183 H         1 <0>         0.1496
     48 H20         2.8448  -11.4604    8.0867 H         1 <0>         0.1443
     49 H21         2.1293  -13.1237    6.3851 H         1 <0>         0.1436
     50 H22         1.0911  -12.3442    4.2939 H         1 <0>         0.1656
     51 H23         0.4821   -0.3310   -0.8296 H         1 <0>         0.4217
@<TRIPOS>BOND
     1    1    2 1
     2    1   29 1
     3    1   30 1
     4    1   31 1
     5    2    7 1
     6    2    3 1
     7    2   51 1
     8    3    4 1
     9    3   32 1
    10    3   33 1
    11    4    5 1
    12    4   34 1
    13    4   35 1
    14    5    6 1
    15    5    8 1
    16    6    7 1
    17    6   36 1
    18    6   37 1
    19    7   38 1
    20    7   39 1
    21    8    9 1
    22    8   40 1
    23    8   41 1
    24    9   10 2
    25    9   11 am
    26   11   12 1
    27   11   42 1
    28   12   17 ar
    29   12   13 ar
    30   13   14 ar
    31   13   43 1
    32   14   15 ar
    33   14   23 1
    34   15   16 ar
    35   16   17 ar
    36   16   18 1
    37   18   22 1
    38   18   19 2
    39   19   20 1
    40   19   44 1
    41   20   21 2
    42   20   45 1
    43   21   22 1
    44   21   46 1
    45   23   28 ar
    46   23   24 ar
    47   24   25 ar
    48   24   47 1
    49   25   26 ar
    50   25   48 1
    51   26   27 ar
    52   26   49 1
    53   27   28 ar
    54   27   50 1
