@<TRIPOS>MOLECULE
CHEMBL176039
   52    56     0     0     0
SMALL
USER_CHARGES

@<TRIPOS>ATOM
      1 C1         -0.0162    1.3433    0.0094 C.2       1 <0>        -0.2193
      2 C2          1.3252    1.7744   -0.0011 C.2       1 <0>        -0.1221
      3 C3          2.0963    0.6547   -0.0144 C.2       1 <0>         0.0290
      4 O1          1.2798   -0.4167   -0.0124 O.3       1 <0>        -0.1602
      5 C4          0.0021   -0.0041    0.0020 C.2       1 <0>        -0.0006
      6 C5          3.5735    0.6192   -0.0292 C.2       1 <0>         0.3428
      7 N1          4.3782    1.6975   -0.0257 N.2       1 <0>        -0.4819
      8 C6          5.6284    1.3133   -0.0438 C.2       1 <0>         0.4984
      9 N2          6.7827    2.0136   -0.0426 N.2       1 <0>        -0.5230
     10 C7          7.9149    1.3544   -0.2245 C.2       1 <0>         0.6680
     11 N3          7.9251    0.0030   -0.4737 N.pl3     1 <0>        -0.6582
     12 C8          6.8335   -0.7612   -0.0614 C.2       1 <0>         0.6288
     13 N4          5.6350   -0.0666   -0.0535 N.pl3     1 <0>        -0.4284
     14 N5          4.3125   -0.4776   -0.0421 N.2       1 <0>        -0.2736
     15 N6          6.9320   -2.0133    0.2840 N.2       1 <0>        -0.6682
     16 N7          9.1029    2.0335   -0.1638 N.pl3     1 <0>        -0.7144
     17 C9          9.1102    3.4745    0.1004 C.3       1 <0>         0.1127
     18 C10        10.5532    3.9828    0.1160 C.3       1 <0>         0.0082
     19 H1         10.9918    3.8839   -0.8769 H         1 <0>         0.1536
     20 C11        10.5845    5.4607    0.5589 C.3       1 <0>        -0.1291
     21 C12        10.9145    5.3653    2.0718 C.3       1 <0>        -0.1403
     22 C13        11.8799    4.1543    2.1057 C.3       1 <0>        -0.0232
     23 N8         11.3454    3.2136    1.0932 N.4       1 <0>        -0.3976
     24 C14        12.4548    2.5375    0.4076 C.3       1 <0>         0.0469
     25 C15        13.1875    1.6562    1.3860 C.ar      1 <0>        -0.2486
     26 C16        14.2476    2.1651    2.1166 C.ar      1 <0>         0.1915
     27 C17        14.9207    1.3556    3.0154 C.ar      1 <0>        -0.1935
     28 C18        14.5335    0.0372    3.1840 C.ar      1 <0>         0.2073
     29 C19        13.4729   -0.4714    2.4542 C.ar      1 <0>        -0.1931
     30 C20        12.7970    0.3393    1.5585 C.ar      1 <0>         0.1887
     31 F1         11.7590   -0.1558    0.8496 F         1 <0>        -0.1148
     32 F2         15.1910   -0.7531    4.0606 F         1 <0>        -0.0992
     33 F3         14.6255    3.4517    1.9520 F         1 <0>        -0.1085
     34 H2         -0.8931    1.9736    0.0252 H         1 <0>         0.1616
     35 H3          1.6735    2.7967    0.0011 H         1 <0>         0.1634
     36 H4         -0.8667   -0.6456    0.0069 H         1 <0>         0.2156
     37 H5          6.1427   -2.5028    0.5637 H         1 <0>         0.3840
     38 H6          9.9393    1.5604   -0.2957 H         1 <0>         0.4099
     39 H7          8.5519    3.9900   -0.6811 H         1 <0>         0.1328
     40 H8          8.6460    3.6690    1.0672 H         1 <0>         0.1117
     41 H9         11.3648    6.0058    0.0278 H         1 <0>         0.1114
     42 H10         9.6126    5.9297    0.4053 H         1 <0>         0.1245
     43 H11        11.4114    6.2706    2.4209 H         1 <0>         0.1243
     44 H12        10.0161    5.1650    2.6556 H         1 <0>         0.1028
     45 H13        12.8891    4.4659    1.8366 H         1 <0>         0.1428
     46 H14        11.8749    3.6926    3.0930 H         1 <0>         0.1335
     47 H15        12.0616    1.9283   -0.4063 H         1 <0>         0.1415
     48 H16        13.1411    3.2824    0.0050 H         1 <0>         0.1541
     49 H17        15.7482    1.7524    3.5848 H         1 <0>         0.1736
     50 H18        13.1710   -1.5000    2.5855 H         1 <0>         0.1733
     51 H19         8.6760   -0.4109   -0.9272 H         1 <0>         0.4397
     52 H20        10.7572    2.5280    1.5427 H         1 <0>         0.4214
@<TRIPOS>BOND
     1    1    5 2
     2    1    2 1
     3    1   34 1
     4    2    3 2
     5    2   35 1
     6    3    4 1
     7    3    6 1
     8    4    5 1
     9    5   36 1
    10    6   14 2
    11    6    7 1
    12    7    8 2
    13    8   13 1
    14    8    9 1
    15    9   10 2
    16   10   11 1
    17   10   16 1
    18   11   12 1
    19   11   51 1
    20   12   13 1
    21   12   15 2
    22   13   14 1
    23   15   37 1
    24   16   17 1
    25   16   38 1
    26   17   18 1
    27   17   39 1
    28   17   40 1
    29   18   19 1
    30   18   23 1
    31   18   20 1
    32   20   21 1
    33   20   41 1
    34   20   42 1
    35   21   22 1
    36   21   43 1
    37   21   44 1
    38   22   23 1
    39   22   45 1
    40   22   46 1
    41   23   24 1
    42   23   52 1
    43   24   25 1
    44   24   47 1
    45   24   48 1
    46   25   30 ar
    47   25   26 ar
    48   26   27 ar
    49   26   33 1
    50   27   28 ar
    51   27   49 1
    52   28   29 ar
    53   28   32 1
    54   29   30 ar
    55   29   50 1
    56   30   31 1
