@<TRIPOS>MOLECULE
CHEMBL601628
   44    46     0     0     0
SMALL
USER_CHARGES

@<TRIPOS>ATOM
      1 C1         -0.8028    1.5152    0.5701 C.3       1 <0>        -0.1536
      2 C2         -0.8077   -0.0148    0.5827 C.3       1 <0>        -0.1221
      3 C3          0.1458   -0.5189    1.6679 C.3       1 <0>        -0.1332
      4 C4          0.1410   -2.0488    1.6805 C.3       1 <0>         0.1174
      5 N1          1.0540   -2.5315    2.7196 N.am      1 <0>        -0.7252
      6 C5          1.2128   -3.8555    2.9150 C.2       1 <0>         0.5638
      7 O1          0.5985   -4.6492    2.2291 O.2       1 <0>        -0.5280
      8 C6          2.1334   -4.3422    3.9627 C.ar      1 <0>        -0.1399
      9 C7          2.7434   -3.4383    4.8240 C.ar      1 <0>        -0.0920
     10 C8          3.6140   -3.8885    5.8161 C.ar      1 <0>         0.2182
     11 C9          3.8784   -5.2560    5.9506 C.ar      1 <0>        -0.1423
     12 C10         3.2632   -6.1791    5.0812 C.ar      1 <0>        -0.1686
     13 C11         2.3864   -5.7219    4.0903 C.ar      1 <0>         0.2744
     14 N2          1.7753   -6.6200    3.2378 N.pl3     1 <0>        -0.8410
     15 C12         3.5383   -7.6181    5.2182 C.2       1 <0>         0.4405
     16 O2          3.0070   -8.4135    4.4673 O.2       1 <0>        -0.4410
     17 C13         4.4612   -8.0958    6.2688 C.ar      1 <0>        -0.1135
     18 C14         4.7276   -9.4555    6.4048 C.ar      1 <0>        -0.0712
     19 C15         5.5933   -9.8931    7.3910 C.ar      1 <0>        -0.0984
     20 C16         6.1974   -8.9882    8.2454 C.ar      1 <0>        -0.1013
     21 C17         5.9438   -7.6340    8.1247 C.ar      1 <0>        -0.0697
     22 C18         5.0757   -7.1760    7.1369 C.ar      1 <0>        -0.1189
     23 C19         4.7992   -5.7313    6.9993 C.2       1 <0>         0.4427
     24 O3          5.3305   -4.9356    7.7494 O.2       1 <0>        -0.4454
     25 N3          4.2194   -2.9786    6.6713 N.pl3     1 <0>        -0.8617
     26 H1          0.2055    1.8736    0.3629 H         1 <0>         0.0548
     27 H2         -1.4821    1.8743   -0.2031 H         1 <0>         0.0571
     28 H3         -1.1284    1.8876    1.5414 H         1 <0>         0.0547
     29 H4         -1.8160   -0.3732    0.7899 H         1 <0>         0.0660
     30 H5         -0.4821   -0.3872   -0.3886 H         1 <0>         0.0660
     31 H6          1.1541   -0.1604    1.4607 H         1 <0>         0.0701
     32 H7         -0.1798   -0.1465    2.6392 H         1 <0>         0.0699
     33 H8         -0.8673   -2.4072    1.8877 H         1 <0>         0.0711
     34 H9          0.4665   -2.4212    0.7092 H         1 <0>         0.0711
     35 H10         1.5441   -1.8982    3.2669 H         1 <0>         0.4001
     36 H11         2.5427   -2.3818    4.7244 H         1 <0>         0.1380
     37 H12         1.6333   -6.3859    2.3073 H         1 <0>         0.4100
     38 H13         1.4881   -7.4851    3.5695 H         1 <0>         0.4082
     39 H14         4.2589  -10.1675    5.7417 H         1 <0>         0.1435
     40 H15         5.7986  -10.9483    7.4948 H         1 <0>         0.1377
     41 H16         6.8713   -9.3416    9.0118 H         1 <0>         0.1376
     42 H17         6.4182   -6.9329    8.7955 H         1 <0>         0.1430
     43 H18         3.7988   -2.1219    6.8446 H         1 <0>         0.3979
     44 H19         5.0633   -3.1993    7.0956 H         1 <0>         0.4132
@<TRIPOS>BOND
     1    1    2 1
     2    1   26 1
     3    1   27 1
     4    1   28 1
     5    2    3 1
     6    2   29 1
     7    2   30 1
     8    3    4 1
     9    3   31 1
    10    3   32 1
    11    4    5 1
    12    4   33 1
    13    4   34 1
    14    5    6 am
    15    5   35 1
    16    6    7 2
    17    6    8 1
    18    8   13 ar
    19    8    9 ar
    20    9   10 ar
    21    9   36 1
    22   10   11 ar
    23   10   25 1
    24   11   23 1
    25   11   12 ar
    26   12   13 ar
    27   12   15 1
    28   13   14 1
    29   14   37 1
    30   14   38 1
    31   15   16 2
    32   15   17 1
    33   17   22 ar
    34   17   18 ar
    35   18   19 ar
    36   18   39 1
    37   19   20 ar
    38   19   40 1
    39   20   21 ar
    40   20   41 1
    41   21   22 ar
    42   21   42 1
    43   22   23 1
    44   23   24 2
    45   25   43 1
    46   25   44 1
