@<TRIPOS>MOLECULE
CHEMBL603791
   76    81     0     0     0
SMALL
USER_CHARGES

@<TRIPOS>ATOM
      1 C1         -0.0471    1.9727    0.3567 C.3       1 <0>        -0.1213
      2 C2          0.1009    0.5077    0.0360 C.ar      1 <0>        -0.0758
      3 C3          0.1034    0.0850   -1.2803 C.ar      1 <0>        -0.1178
      4 C4          0.2391   -1.2586   -1.5745 C.ar      1 <0>        -0.1138
      5 C5          0.3727   -2.1799   -0.5523 C.ar      1 <0>        -0.1231
      6 C6          0.3711   -1.7573    0.7636 C.ar      1 <0>        -0.1017
      7 C7          0.2397   -0.4128    1.0577 C.ar      1 <0>        -0.0810
      8 C8          0.2431    0.0486    2.4923 C.3       1 <0>        -0.0245
      9 C9         -0.8191   -0.7224    3.2786 C.3       1 <0>         0.1377
     10 N1         -2.1486   -0.3829    2.7655 N.pl3     1 <0>        -0.6886
     11 C10        -3.2746   -0.9613    3.3248 C.ar      1 <0>         0.5091
     12 C11        -4.5575   -0.6517    2.8415 C.ar      1 <0>        -0.1053
     13 C12        -5.6625   -1.2705    3.4496 C.ar      1 <0>         0.3131
     14 N2         -5.4571   -2.1196    4.4515 N.ar      1 <0>        -0.5518
     15 C13        -4.2369   -2.3796    4.8709 C.ar      1 <0>         0.3649
     16 N3         -3.1676   -1.8265    4.3277 N.ar      1 <0>        -0.5865
     17 N4         -6.7701   -0.7962    2.7935 N.pl3     1 <0>        -0.4724
     18 C14        -6.3371    0.0698    1.8340 C.2       1 <0>         0.2628
     19 N5         -5.0387    0.1532    1.8639 N.2       1 <0>        -0.4569
     20 C15        -8.1628   -1.1551    3.0725 C.3       1 <0>         0.3151
     21 C16        -8.7521   -0.2227    4.1540 C.3       1 <0>         0.0817
     22 H1         -8.2130    0.7243    4.1769 H         1 <0>         0.0896
     23 C17       -10.2138   -0.0027    3.7042 C.3       1 <0>         0.0507
     24 H2        -10.3973    1.0530    3.5047 H         1 <0>         0.0912
     25 C18       -10.3347   -0.8283    2.4041 C.3       1 <0>         0.0333
     26 H3        -10.7361   -1.8185    2.6193 H         1 <0>         0.1209
     27 O1         -8.9833   -0.9310    1.9052 O.3       1 <0>        -0.3272
     28 C19       -11.2111   -0.1132    1.4082 C.2       1 <0>         0.5224
     29 O2        -10.7408    0.2877    0.3646 O.2       1 <0>        -0.5010
     30 N6        -12.5174    0.0808    1.6772 N.am      1 <0>        -0.6985
     31 C20       -13.3693    0.7759    0.7091 C.3       1 <0>         0.0753
     32 C21       -14.3446    1.8232    1.2502 C.3       1 <0>        -0.1897
     33 C22       -14.8695    0.4775    0.7459 C.3       1 <0>        -0.1851
     34 O3        -11.1213   -0.4887    4.6953 O.3       1 <0>        -0.5314
     35 O4         -8.7093   -0.8529    5.4358 O.3       1 <0>        -0.5233
     36 C23         1.5994   -0.2051    3.0983 C.ar      1 <0>         0.0076
     37 C24         2.0257   -1.5012    3.3167 C.ar      1 <0>        -0.1799
     38 C25         3.2742   -1.7374    3.8746 C.ar      1 <0>         0.1709
     39 C26         4.0939   -0.6718    4.2129 C.ar      1 <0>        -0.2978
     40 C27         3.6639    0.6277    3.9927 C.ar      1 <0>         0.1694
     41 C28         2.4168    0.8586    3.4294 C.ar      1 <0>        -0.1786
     42 O5          4.4650    1.6744    4.3237 O.3       1 <0>        -0.3128
     43 C29         5.7374    1.3624    4.8944 C.3       1 <0>         0.0263
     44 O6          3.6928   -3.0123    4.0895 O.3       1 <0>        -0.3118
     45 C30         4.9890   -3.1809    4.6670 C.3       1 <0>         0.0262
     46 H4          0.9390    2.4148    0.4995 H         1 <0>         0.0733
     47 H5         -0.5549    2.4754   -0.4664 H         1 <0>         0.0692
     48 H6         -0.6323    2.0877    1.2691 H         1 <0>         0.0680
     49 H7         -0.0009    0.8048   -2.0788 H         1 <0>         0.1220
     50 H8          0.2404   -1.5888   -2.6027 H         1 <0>         0.1207
     51 H9          0.4780   -3.2299   -0.7821 H         1 <0>         0.1207
     52 H10         0.4751   -2.4771    1.5621 H         1 <0>         0.1230
     53 H11         0.0214    1.1151    2.5315 H         1 <0>         0.1037
     54 H12        -0.6487   -1.7931    3.1660 H         1 <0>         0.0778
     55 H13        -0.7570   -0.4535    4.3331 H         1 <0>         0.0798
     56 H14        -2.2398    0.2473    2.0337 H         1 <0>         0.4183
     57 H15        -4.1049   -3.0741    5.6874 H         1 <0>         0.2043
     58 H16        -6.9770    0.6075    1.1501 H         1 <0>         0.2240
     59 H17        -8.2296   -2.1960    3.3891 H         1 <0>         0.1280
     60 H18       -12.8935   -0.2399    2.5118 H         1 <0>         0.3994
     61 H19       -12.9173    0.9643   -0.2648 H         1 <0>         0.1418
     62 H20       -14.3524    1.9950    2.3266 H         1 <0>         0.0986
     63 H21       -14.5344    2.7009    0.6325 H         1 <0>         0.1061
     64 H22       -15.4045    0.4699   -0.2038 H         1 <0>         0.1075
     65 H23       -15.2226   -0.2361    1.4904 H         1 <0>         0.1000
     66 H24       -12.0535   -0.3758    4.4643 H         1 <0>         0.3821
     67 H25        -9.0672   -0.3114    6.1525 H         1 <0>         0.3917
     68 H26         1.3867   -2.3310    3.0533 H         1 <0>         0.1345
     69 H27         5.0658   -0.8536    4.6475 H         1 <0>         0.1344
     70 H28         2.0832    1.8706    3.2536 H         1 <0>         0.1328
     71 H29         5.5937    0.8003    5.8172 H         1 <0>         0.0558
     72 H30         6.3144    0.7632    4.1901 H         1 <0>         0.0554
     73 H31         6.2745    2.2857    5.1113 H         1 <0>         0.1028
     74 H32         5.7385   -2.7327    4.0147 H         1 <0>         0.0550
     75 H33         5.0185   -2.6947    5.6421 H         1 <0>         0.0558
     76 H34         5.1989   -4.2440    4.7846 H         1 <0>         0.1030
@<TRIPOS>BOND
     1    1    2 1
     2    1   46 1
     3    1   47 1
     4    1   48 1
     5    2    7 ar
     6    2    3 ar
     7    3    4 ar
     8    3   49 1
     9    4    5 ar
    10    4   50 1
    11    5    6 ar
    12    5   51 1
    13    6    7 ar
    14    6   52 1
    15    7    8 1
    16    8    9 1
    17    8   36 1
    18    8   53 1
    19    9   10 1
    20    9   54 1
    21    9   55 1
    22   10   11 1
    23   10   56 1
    24   11   16 ar
    25   11   12 ar
    26   12   19 1
    27   12   13 ar
    28   13   14 ar
    29   13   17 1
    30   14   15 ar
    31   15   16 ar
    32   15   57 1
    33   17   18 1
    34   17   20 1
    35   18   19 2
    36   18   58 1
    37   20   27 1
    38   20   21 1
    39   20   59 1
    40   21   22 1
    41   21   23 1
    42   21   35 1
    43   23   24 1
    44   23   25 1
    45   23   34 1
    46   25   26 1
    47   25   27 1
    48   25   28 1
    49   28   29 2
    50   28   30 am
    51   30   31 1
    52   30   60 1
    53   31   33 1
    54   31   32 1
    55   31   61 1
    56   32   33 1
    57   32   62 1
    58   32   63 1
    59   33   64 1
    60   33   65 1
    61   34   66 1
    62   35   67 1
    63   36   41 ar
    64   36   37 ar
    65   37   38 ar
    66   37   68 1
    67   38   39 ar
    68   38   44 1
    69   39   40 ar
    70   39   69 1
    71   40   41 ar
    72   40   42 1
    73   41   70 1
    74   42   43 1
    75   43   71 1
    76   43   72 1
    77   43   73 1
    78   44   45 1
    79   45   74 1
    80   45   75 1
    81   45   76 1
