@<TRIPOS>MOLECULE
CHEMBL611583
   61    64     0     0     0
SMALL
USER_CHARGES

@<TRIPOS>ATOM
      1 C1         -0.0187    1.5258    0.0104 C.3       1 <0>        -0.1678
      2 C2          0.0021   -0.0041    0.0020 C.3       1 <0>         0.1135
      3 N1          0.7106   -0.4894    1.1889 N.am      1 <0>        -0.7273
      4 C3          0.8538   -1.8138    1.3937 C.2       1 <0>         0.5158
      5 O1          0.3960   -2.6038    0.5954 O.2       1 <0>        -0.5035
      6 C4          1.5826   -2.3130    2.6146 C.3       1 <0>         0.0320
      7 H1          1.1317   -1.9093    3.5212 H         1 <0>         0.1218
      8 C5          3.0862   -1.9436    2.5417 C.3       1 <0>         0.0507
      9 H2          3.4577   -2.0251    1.5203 H         1 <0>         0.0945
     10 C6          3.7288   -3.0193    3.4508 C.3       1 <0>         0.0834
     11 H3          4.6617   -3.3784    3.0162 H         1 <0>         0.0895
     12 C7          2.6834   -4.1506    3.4944 C.3       1 <0>         0.3151
     13 O2          1.5881   -3.7564    2.6487 O.3       1 <0>        -0.3272
     14 N2          3.2753   -5.3953    2.9979 N.pl3     1 <0>        -0.4753
     15 C8          3.2056   -5.8687    1.7215 C.2       1 <0>         0.2639
     16 N3          3.8422   -7.0002    1.6315 N.2       1 <0>        -0.4580
     17 C9          4.3595   -7.3240    2.8409 C.ar      1 <0>        -0.1131
     18 C10         4.0067   -6.2954    3.7310 C.ar      1 <0>         0.3138
     19 N4          4.4030   -6.3726    4.9971 N.ar      1 <0>        -0.5454
     20 C11         5.1188   -7.3954    5.4148 C.ar      1 <0>         0.3939
     21 N5          5.4772   -8.3834    4.6154 N.ar      1 <0>        -0.5845
     22 C12         5.1198   -8.3972    3.3353 C.ar      1 <0>         0.5111
     23 N6          5.5012   -9.4365    2.5049 N.pl3     1 <0>        -0.8171
     24 C13         5.5457   -7.4402    6.8594 C.3       1 <0>        -0.0445
     25 C14         4.4800   -8.1652    7.6839 C.3       1 <0>        -0.0772
     26 C15         3.1839   -7.3523    7.6698 C.3       1 <0>        -0.1089
     27 C16         2.1182   -8.0773    8.4942 C.3       1 <0>        -0.1132
     28 C17         2.6070   -8.2329    9.9356 C.3       1 <0>        -0.0867
     29 C18         3.9031   -9.0457    9.9498 C.3       1 <0>        -0.1090
     30 C19         4.9688   -8.3207    9.1253 C.3       1 <0>        -0.1122
     31 C20         1.5413   -8.9579   10.7601 C.3       1 <0>         0.0781
     32 O3          1.9461   -9.0003   12.1299 O.3       1 <0>        -0.5731
     33 O4          3.9577   -2.4955    4.7605 O.3       1 <0>        -0.5310
     34 O5          3.3149   -0.6324    3.0619 O.3       1 <0>        -0.5362
     35 H4          1.0039    1.9031    0.0027 H         1 <0>         0.0637
     36 H5         -0.5459    1.8868   -0.8726 H         1 <0>         0.0792
     37 H6         -0.5289    1.8773    0.9072 H         1 <0>         0.0645
     38 H7         -1.0205   -0.3814    0.0098 H         1 <0>         0.0730
     39 H8          0.5123   -0.3556   -0.8948 H         1 <0>         0.0727
     40 H9          1.0768    0.1425    1.8273 H         1 <0>         0.3979
     41 H10         2.3285   -4.2882    4.5158 H         1 <0>         0.1311
     42 H11         2.6967   -5.3774    0.9054 H         1 <0>         0.2237
     43 H12         5.2437   -9.4297    1.5697 H         1 <0>         0.4193
     44 H13         6.0261  -10.1719    2.8580 H         1 <0>         0.4108
     45 H14         6.4933   -7.9724    6.9420 H         1 <0>         0.0938
     46 H15         5.6659   -6.4238    7.2344 H         1 <0>         0.0929
     47 H16         4.2960   -9.1499    7.2543 H         1 <0>         0.0736
     48 H17         3.3679   -6.3676    8.0993 H         1 <0>         0.0674
     49 H18         2.8357   -7.2415    6.6428 H         1 <0>         0.0635
     50 H19         1.1948   -7.4982    8.4841 H         1 <0>         0.0616
     51 H20         1.9342   -9.0621    8.0647 H         1 <0>         0.0604
     52 H21         2.7910   -7.2481   10.3652 H         1 <0>         0.0778
     53 H22         4.2513   -9.1565   10.9767 H         1 <0>         0.0702
     54 H23         3.7191  -10.0305    9.5202 H         1 <0>         0.0588
     55 H24         5.8922   -8.8998    9.1354 H         1 <0>         0.0659
     56 H25         5.1528   -7.3360    9.5549 H         1 <0>         0.0656
     57 H26         0.5937   -8.4256   10.6775 H         1 <0>         0.0435
     58 H27         1.4211   -9.9742   10.3851 H         1 <0>         0.0440
     59 H28         1.3164   -9.4467   12.7124 H         1 <0>         0.3786
     60 H29         4.5648   -1.7431    4.7827 H         1 <0>         0.3966
     61 H30         2.8575    0.0683    2.5773 H         1 <0>         0.3841
@<TRIPOS>BOND
     1    1    2 1
     2    1   35 1
     3    1   36 1
     4    1   37 1
     5    2    3 1
     6    2   38 1
     7    2   39 1
     8    3    4 am
     9    3   40 1
    10    4    5 2
    11    4    6 1
    12    6    7 1
    13    6   13 1
    14    6    8 1
    15    8    9 1
    16    8   10 1
    17    8   34 1
    18   10   11 1
    19   10   12 1
    20   10   33 1
    21   12   13 1
    22   12   14 1
    23   12   41 1
    24   14   18 1
    25   14   15 1
    26   15   16 2
    27   15   42 1
    28   16   17 1
    29   17   22 ar
    30   17   18 ar
    31   18   19 ar
    32   19   20 ar
    33   20   21 ar
    34   20   24 1
    35   21   22 ar
    36   22   23 1
    37   23   43 1
    38   23   44 1
    39   24   25 1
    40   24   45 1
    41   24   46 1
    42   25   30 1
    43   25   26 1
    44   25   47 1
    45   26   27 1
    46   26   48 1
    47   26   49 1
    48   27   28 1
    49   27   50 1
    50   27   51 1
    51   28   29 1
    52   28   31 1
    53   28   52 1
    54   29   30 1
    55   29   53 1
    56   29   54 1
    57   30   55 1
    58   30   56 1
    59   31   32 1
    60   31   57 1
    61   31   58 1
    62   32   59 1
    63   33   60 1
    64   34   61 1
