@<TRIPOS>MOLECULE
CHEMBL246054
   68    73     0     0     0
SMALL
USER_CHARGES

@<TRIPOS>ATOM
      1 C1         -0.0173    1.4248    0.0099 C.3       1 <0>         0.0296
      2 O1          0.0021   -0.0041    0.0020 O.3       1 <0>        -0.3873
      3 C2          0.6518   -0.5703   -1.1379 C.3       1 <0>         0.0596
      4 C3          0.6131   -2.0967   -1.0411 C.3       1 <0>         0.0604
      5 O2         -0.7418   -2.5446   -1.1169 O.3       1 <0>        -0.3030
      6 C4         -0.9533   -3.8852   -1.0457 C.ar      1 <0>         0.1465
      7 C5          0.1205   -4.7513   -0.8999 C.ar      1 <0>        -0.2069
      8 C6         -0.0972   -6.1135   -0.8272 C.ar      1 <0>        -0.0649
      9 C7         -1.3840   -6.6140   -0.9002 C.ar      1 <0>        -0.1409
     10 C8         -2.4560   -5.7529   -1.0459 C.ar      1 <0>        -0.0734
     11 C9         -2.2440   -4.3894   -1.1129 C.ar      1 <0>        -0.1487
     12 C10        -1.6186   -8.1005   -0.8212 C.3       1 <0>        -0.0473
     13 C11        -2.3152   -8.5776   -2.0988 C.3       1 <0>        -0.1399
     14 C12        -2.6217  -10.0720   -1.9785 C.3       1 <0>        -0.0050
     15 N1         -3.4995  -10.3038   -0.8251 N.4       1 <0>        -0.3788
     16 C13        -2.8104   -9.9152    0.4113 C.3       1 <0>        -0.0135
     17 C14        -2.5112   -8.4148    0.3829 C.3       1 <0>        -0.1394
     18 C15        -3.8537  -11.7280   -0.7596 C.3       1 <0>        -0.0300
     19 C16        -4.8663  -11.9504    0.3655 C.3       1 <0>         0.0931
     20 N2         -5.2195  -13.3707    0.4308 N.pl3     1 <0>        -0.4620
     21 C17        -6.2901  -13.9638   -0.1692 C.2       1 <0>         0.2262
     22 N3         -6.2962  -15.2381    0.1007 N.2       1 <0>        -0.4150
     23 C18        -5.2364  -15.5360    0.8850 C.2       1 <0>        -0.0173
     24 C19        -4.5300  -14.3488    1.1024 C.2       1 <0>         0.2893
     25 N4         -3.4205  -14.3618    1.8504 N.2       1 <0>        -0.5631
     26 C20        -2.9576  -15.4607    2.3956 C.2       1 <0>         0.6855
     27 N5         -3.5732  -16.6673    2.2392 N.pl3     1 <0>        -0.3668
     28 C21        -4.7229  -16.7589    1.4974 C.2       1 <0>         0.3924
     29 N6         -5.1099  -18.0193    1.5056 N.2       1 <0>        -0.4904
     30 C22        -4.2592  -18.7456    2.2404 C.2       1 <0>         0.3582
     31 N7         -3.3003  -17.9621    2.6984 N.2       1 <0>        -0.2894
     32 C23        -4.3640  -20.2000    2.4822 C.2       1 <0>         0.0292
     33 C24        -3.5103  -20.9478    3.2304 C.2       1 <0>        -0.1281
     34 C25        -3.9877  -22.2728    3.1882 C.2       1 <0>        -0.2206
     35 C26        -5.0977  -22.2683    2.4242 C.2       1 <0>         0.0050
     36 O3         -5.3253  -21.0135    2.0042 O.3       1 <0>        -0.1516
     37 N8         -1.8093  -15.3940    3.1522 N.pl3     1 <0>        -0.8001
     38 H1          1.0053    1.8021    0.0021 H         1 <0>         0.0446
     39 H2         -0.5445    1.7859   -0.8732 H         1 <0>         0.0449
     40 H3         -0.5275    1.7763    0.9067 H         1 <0>         0.0903
     41 H4          0.1385   -0.2506   -2.0447 H         1 <0>         0.0637
     42 H5          1.6883   -0.2344   -1.1694 H         1 <0>         0.0761
     43 H6          1.1847   -2.5275   -1.8631 H         1 <0>         0.0810
     44 H7          1.0473   -2.4117   -0.0922 H         1 <0>         0.0748
     45 H8          1.1259   -4.3609   -0.8436 H         1 <0>         0.1321
     46 H9          0.7385   -6.7882   -0.7137 H         1 <0>         0.1260
     47 H10        -3.4602   -6.1463   -1.1030 H         1 <0>         0.1246
     48 H11        -3.0820   -3.7169   -1.2223 H         1 <0>         0.1348
     49 H12        -0.6639   -8.6148   -0.7113 H         1 <0>         0.0945
     50 H13        -3.2450   -8.0252   -2.2345 H         1 <0>         0.0915
     51 H14        -1.6619   -8.4078   -2.9547 H         1 <0>         0.1158
     52 H15        -3.1175  -10.4150   -2.8866 H         1 <0>         0.1335
     53 H16        -1.6913  -10.6235   -1.8431 H         1 <0>         0.1303
     54 H17        -3.4455  -10.1424    1.2675 H         1 <0>         0.1320
     55 H18        -1.8760  -10.4700    0.4957 H         1 <0>         0.1328
     56 H19        -1.9980   -8.1286    1.3010 H         1 <0>         0.1158
     57 H20        -3.4450   -7.8589    0.2987 H         1 <0>         0.0914
     58 H21        -4.2913  -12.0375   -1.7087 H         1 <0>         0.1412
     59 H22        -2.9575  -12.3166   -0.5635 H         1 <0>         0.1382
     60 H23        -4.4287  -11.6409    1.3146 H         1 <0>         0.1171
     61 H24        -5.7625  -11.3618    0.1695 H         1 <0>         0.1241
     62 H25        -7.0233  -13.4539   -0.7764 H         1 <0>         0.2329
     63 H26        -2.6351  -20.5946    3.7554 H         1 <0>         0.1611
     64 H27        -3.5470  -23.1300    3.6754 H         1 <0>         0.1623
     65 H28        -5.7059  -23.1301    2.1921 H         1 <0>         0.2171
     66 H29        -1.3575  -14.5443    3.2742 H         1 <0>         0.4293
     67 H30        -1.4520  -16.1967    3.5632 H         1 <0>         0.4302
     68 H31        -4.3397   -9.7547   -0.9275 H         1 <0>         0.4242
@<TRIPOS>BOND
     1    1    2 1
     2    1   38 1
     3    1   39 1
     4    1   40 1
     5    2    3 1
     6    3    4 1
     7    3   41 1
     8    3   42 1
     9    4    5 1
    10    4   43 1
    11    4   44 1
    12    5    6 1
    13    6   11 ar
    14    6    7 ar
    15    7    8 ar
    16    7   45 1
    17    8    9 ar
    18    8   46 1
    19    9   10 ar
    20    9   12 1
    21   10   11 ar
    22   10   47 1
    23   11   48 1
    24   12   17 1
    25   12   13 1
    26   12   49 1
    27   13   14 1
    28   13   50 1
    29   13   51 1
    30   14   15 1
    31   14   52 1
    32   14   53 1
    33   15   16 1
    34   15   18 1
    35   15   68 1
    36   16   17 1
    37   16   54 1
    38   16   55 1
    39   17   56 1
    40   17   57 1
    41   18   19 1
    42   18   58 1
    43   18   59 1
    44   19   20 1
    45   19   60 1
    46   19   61 1
    47   20   24 1
    48   20   21 1
    49   21   22 2
    50   21   62 1
    51   22   23 1
    52   23   28 1
    53   23   24 2
    54   24   25 1
    55   25   26 2
    56   26   27 1
    57   26   37 1
    58   27   31 1
    59   27   28 1
    60   28   29 2
    61   29   30 1
    62   30   31 2
    63   30   32 1
    64   32   36 1
    65   32   33 2
    66   33   34 1
    67   33   63 1
    68   34   35 2
    69   34   64 1
    70   35   36 1
    71   35   65 1
    72   37   66 1
    73   37   67 1
