@<TRIPOS>MOLECULE
CHEMBL255911
   44    47     0     0     0
SMALL
USER_CHARGES

@<TRIPOS>ATOM
      1 C1         -0.0160    1.3805    0.0121 C.ar      1 <0>        -0.0845
      2 C2          1.1940    2.0587    0.0058 C.ar      1 <0>        -0.1507
      3 C3          2.3751    1.3384   -0.0079 C.ar      1 <0>         0.0950
      4 N1          2.3639    0.0216   -0.0151 N.ar      1 <0>        -0.4401
      5 C4          1.2287   -0.6643   -0.0095 C.ar      1 <0>         0.1611
      6 C5          0.0026   -0.0042    0.0042 C.ar      1 <0>        -0.1115
      7 C6          1.2656   -2.1481   -0.0186 C.ar      1 <0>         0.4092
      8 N2          2.4380   -2.7630   -0.0267 N.ar      1 <0>        -0.4864
      9 C7          2.5098   -4.0942   -0.0349 C.ar      1 <0>         0.2782
     10 C8          1.3267   -4.8365   -0.0349 C.ar      1 <0>        -0.2114
     11 C9          0.1146   -4.1498   -0.0262 C.ar      1 <0>         0.4167
     12 N3          0.1237   -2.8213   -0.0129 N.ar      1 <0>        -0.4961
     13 N4         -1.0897   -4.8461   -0.0263 N.am      1 <0>        -0.6508
     14 C10        -2.2547   -4.1775    0.0853 C.2       1 <0>         0.5075
     15 O1         -2.2595   -2.9649    0.0929 O.2       1 <0>        -0.4361
     16 C11        -3.5512   -4.9370    0.2004 C.3       1 <0>         0.0436
     17 O2         -4.6365   -4.0134    0.3061 O.3       1 <0>        -0.2854
     18 C12        -5.8850   -4.5386    0.4183 C.ar      1 <0>         0.1288
     19 C13        -6.0596   -5.9161    0.4320 C.ar      1 <0>        -0.1818
     20 C14        -7.3270   -6.4563    0.5463 C.ar      1 <0>        -0.0768
     21 C15        -8.4276   -5.6300    0.6471 C.ar      1 <0>        -0.1050
     22 C16        -8.2621   -4.2436    0.6342 C.ar      1 <0>         0.0158
     23 C17        -6.9813   -3.7000    0.5245 C.ar      1 <0>        -0.0988
     24 C18        -9.4018   -3.3828    0.7386 C.1       1 <0>         0.2502
     25 N5        -10.3058   -2.7000    0.8214 N.1       1 <0>        -0.4020
     26 C19         3.8223   -4.7746   -0.0444 C.2       1 <0>         0.1187
     27 N6          4.0976   -6.0713   -0.0592 N.2       1 <0>        -0.4758
     28 C20         5.3335   -6.5055   -0.0663 C.2       1 <0>         0.0203
     29 C21         6.3648   -5.6160   -0.0584 C.2       1 <0>        -0.1964
     30 S1          5.4657   -4.0699   -0.0470 S.3       1 <0>         0.1055
     31 H1         -0.9515    1.9201    0.0272 H         1 <0>         0.1422
     32 H2          1.2139    3.1386    0.0113 H         1 <0>         0.1405
     33 H3          3.3191    1.8631   -0.0131 H         1 <0>         0.1633
     34 H4         -0.9208   -0.5643    0.0091 H         1 <0>         0.1576
     35 H5          1.3510   -5.9163   -0.0418 H         1 <0>         0.1647
     36 H6         -1.0910   -5.8127   -0.1066 H         1 <0>         0.4263
     37 H7         -3.6880   -5.5586   -0.6844 H         1 <0>         0.1027
     38 H8         -3.5244   -5.5692    1.0880 H         1 <0>         0.1032
     39 H9         -5.2021   -6.5679    0.3528 H         1 <0>         0.1368
     40 H10        -7.4562   -7.5285    0.5564 H         1 <0>         0.1399
     41 H11        -9.4164   -6.0554    0.7355 H         1 <0>         0.1373
     42 H12        -6.8463   -2.6284    0.5180 H         1 <0>         0.1446
     43 H13         5.5342   -7.5666   -0.0780 H         1 <0>         0.1750
     44 H14         7.4299   -5.7947   -0.0624 H         1 <0>         0.2046
@<TRIPOS>BOND
     1    1    6 ar
     2    1    2 ar
     3    1   31 1
     4    2    3 ar
     5    2   32 1
     6    3    4 ar
     7    3   33 1
     8    4    5 ar
     9    5    6 ar
    10    5    7 1
    11    6   34 1
    12    7   12 ar
    13    7    8 ar
    14    8    9 ar
    15    9   10 ar
    16    9   26 1
    17   10   11 ar
    18   10   35 1
    19   11   12 ar
    20   11   13 1
    21   13   14 am
    22   13   36 1
    23   14   15 2
    24   14   16 1
    25   16   17 1
    26   16   37 1
    27   16   38 1
    28   17   18 1
    29   18   23 ar
    30   18   19 ar
    31   19   20 ar
    32   19   39 1
    33   20   21 ar
    34   20   40 1
    35   21   22 ar
    36   21   41 1
    37   22   23 ar
    38   22   24 1
    39   23   42 1
    40   24   25 3
    41   26   30 1
    42   26   27 2
    43   27   28 1
    44   28   29 2
    45   28   43 1
    46   29   30 1
    47   29   44 1
