@<TRIPOS>MOLECULE
CHEMBL179265
   53    58     0     0     0
SMALL
USER_CHARGES

@<TRIPOS>ATOM
      1 C1         -0.0167    1.3777   -0.0073 C.ar      1 <0>        -0.0733
      2 C2          1.1668    2.0885    0.0019 C.ar      1 <0>        -0.1456
      3 C3          2.3866    1.4125    0.0036 C.ar      1 <0>        -0.0112
      4 C4          2.4064    0.0192   -0.0039 C.ar      1 <0>        -0.1505
      5 C5          1.2130   -0.6867   -0.0131 C.ar      1 <0>         0.2137
      6 C6          0.0020   -0.0040   -0.0148 C.ar      1 <0>        -0.1789
      7 N1          1.2276   -2.0836   -0.0212 N.pl3     1 <0>        -0.6284
      8 C7          2.4942   -2.8184   -0.1417 C.3       1 <0>         0.1281
      9 C8          2.3849   -3.8006   -1.3123 C.3       1 <0>        -0.1523
     10 C9          1.1550   -4.6889   -1.1149 C.3       1 <0>         0.2599
     11 C10        -0.1094   -3.8282   -1.0814 C.3       1 <0>        -0.1366
     12 C11        -0.0228   -2.8460    0.0969 C.3       1 <0>         0.1288
     13 O1          1.2771   -5.4141    0.1151 O.3       1 <0>        -0.3735
     14 C12         1.2789   -6.8181   -0.2141 C.3       1 <0>         0.0200
     15 C13         1.7032   -6.8283   -1.7040 C.3       1 <0>         0.0146
     16 O2          1.0650   -5.6269   -2.2000 O.3       1 <0>        -0.3714
     17 C14         3.6582    2.1738    0.0129 C.2       1 <0>         0.2529
     18 C15         3.6347    3.5568    0.0257 C.2       1 <0>        -0.2145
     19 C16         4.8600    4.2475    0.0348 C.2       1 <0>         0.3533
     20 N2          5.1859    5.5305    0.0474 N.2       1 <0>        -0.5241
     21 C17         6.5169    5.6546    0.0514 C.2       1 <0>         0.3534
     22 N3          7.0688    4.4544    0.0415 N.2       1 <0>        -0.3223
     23 N4          6.0239    3.5216    0.0306 N.pl3     1 <0>        -0.3616
     24 C18         5.9768    2.1606    0.0174 C.2       1 <0>         0.6525
     25 N5          4.8302    1.5201    0.0146 N.2       1 <0>        -0.5482
     26 N6          7.1508    1.4440    0.0129 N.pl3     1 <0>        -0.8084
     27 C19         7.2556    6.9347    0.0642 C.2       1 <0>         0.0371
     28 C20         6.7010    8.1757    0.0796 C.2       1 <0>        -0.1270
     29 C21         7.7672    9.0967    0.0874 C.2       1 <0>        -0.2189
     30 C22         8.9082    8.3798    0.0765 C.2       1 <0>        -0.0082
     31 O3          8.5954    7.0742    0.0683 O.3       1 <0>        -0.1608
     32 H1         -0.9602    1.9032   -0.0040 H         1 <0>         0.1291
     33 H2          1.1481    3.1683    0.0074 H         1 <0>         0.1287
     34 H3          3.3484   -0.5091   -0.0030 H         1 <0>         0.1368
     35 H4         -0.9268   -0.5550   -0.0216 H         1 <0>         0.1265
     36 H5          3.3074   -2.1169   -0.3281 H         1 <0>         0.0888
     37 H6          2.6869   -3.3680    0.7797 H         1 <0>         0.0713
     38 H7          2.2866   -3.2454   -2.2451 H         1 <0>         0.0852
     39 H8          3.2798   -4.4217   -1.3507 H         1 <0>         0.0799
     40 H9         -0.1963   -3.2729   -2.0153 H         1 <0>         0.0851
     41 H10        -0.9823   -4.4688   -0.9560 H         1 <0>         0.0845
     42 H11        -0.0271   -3.3976    1.0370 H         1 <0>         0.0730
     43 H12        -0.8715   -2.1627    0.0679 H         1 <0>         0.0898
     44 H13         2.0041   -7.3560    0.3966 H         1 <0>         0.1011
     45 H14         0.2823   -7.2431   -0.0945 H         1 <0>         0.0774
     46 H15         2.7869   -6.7633   -1.8016 H         1 <0>         0.0763
     47 H16         1.3195   -7.7125   -2.2130 H         1 <0>         0.1102
     48 H17         2.6976    4.0936    0.0283 H         1 <0>         0.1688
     49 H18         8.0025    1.9084    0.0190 H         1 <0>         0.4242
     50 H19         7.1272    0.4744    0.0036 H         1 <0>         0.4289
     51 H20         5.6468    8.4103    0.0845 H         1 <0>         0.1633
     52 H21         7.6855   10.1735    0.0999 H         1 <0>         0.1596
     53 H22         9.9082    8.7877    0.0783 H         1 <0>         0.2132
@<TRIPOS>BOND
     1    1    6 ar
     2    1    2 ar
     3    1   32 1
     4    2    3 ar
     5    2   33 1
     6    3    4 ar
     7    3   17 1
     8    4    5 ar
     9    4   34 1
    10    5    6 ar
    11    5    7 1
    12    6   35 1
    13    7   12 1
    14    7    8 1
    15    8    9 1
    16    8   36 1
    17    8   37 1
    18    9   10 1
    19    9   38 1
    20    9   39 1
    21   10   16 1
    22   10   11 1
    23   10   13 1
    24   11   12 1
    25   11   40 1
    26   11   41 1
    27   12   42 1
    28   12   43 1
    29   13   14 1
    30   14   15 1
    31   14   44 1
    32   14   45 1
    33   15   16 1
    34   15   46 1
    35   15   47 1
    36   17   25 1
    37   17   18 2
    38   18   19 1
    39   18   48 1
    40   19   23 1
    41   19   20 2
    42   20   21 1
    43   21   22 2
    44   21   27 1
    45   22   23 1
    46   23   24 1
    47   24   25 2
    48   24   26 1
    49   26   49 1
    50   26   50 1
    51   27   31 1
    52   27   28 2
    53   28   29 1
    54   28   51 1
    55   29   30 2
    56   29   52 1
    57   30   31 1
    58   30   53 1
