@<TRIPOS>MOLECULE
CHEMBL405234
   31    33     0     0     0
SMALL
USER_CHARGES

@<TRIPOS>ATOM
      1 C1         -0.0163    1.3538    0.0095 C.2       1 <0>        -0.1960
      2 C2          1.1733    2.0375    0.0018 C.2       1 <0>        -0.0604
      3 C3          2.3205    1.2513   -0.0134 C.2       1 <0>        -0.2945
      4 S1          1.6359   -0.3947   -0.0157 S.3       1 <0>         0.3074
      5 C4          0.0021   -0.0041    0.0020 C.2       1 <0>        -0.2441
      6 C5          3.7225    1.6666   -0.0249 C.2       1 <0>         0.4936
      7 O1          4.0066    2.8501   -0.0217 O.2       1 <0>        -0.4140
      8 C6          4.7972    0.6466   -0.0406 C.ar      1 <0>         0.2120
      9 C7          6.1311    1.0203   -0.0459 C.ar      1 <0>        -0.2584
     10 C8          7.1619    0.0475   -0.0610 C.ar      1 <0>         0.2201
     11 C9          8.5057    0.5909   -0.0649 C.2       1 <0>        -0.1595
     12 C10         8.6761    1.9248   -0.0545 C.2       1 <0>        -0.1128
     13 S2          7.0094    2.5589   -0.0383 S.3       1 <0>         0.1242
     14 N1          6.7557   -1.2401   -0.0699 N.ar      1 <0>        -0.5286
     15 C11         5.4776   -1.5552   -0.0648 C.ar      1 <0>         0.5715
     16 N2          4.5046   -0.6564   -0.0444 N.ar      1 <0>        -0.5141
     17 N3          5.1317   -2.8980   -0.0750 N.pl3     1 <0>        -0.6901
     18 C12         6.1776   -3.9237   -0.0911 C.3       1 <0>         0.1376
     19 C13         5.5316   -5.3106   -0.0998 C.3       1 <0>         0.0616
     20 O2          4.8067   -5.4907   -1.3181 O.3       1 <0>        -0.5710
     21 H1         -0.9547    1.8883    0.0258 H         1 <0>         0.1360
     22 H2          1.2160    3.1166    0.0068 H         1 <0>         0.1483
     23 H3         -0.8412   -0.6788    0.0070 H         1 <0>         0.1878
     24 H4          9.3610   -0.0684   -0.0757 H         1 <0>         0.1537
     25 H5          9.6024    2.4802   -0.0557 H         1 <0>         0.2042
     26 H6          4.1972   -3.1581   -0.0715 H         1 <0>         0.4190
     27 H7          6.7911   -3.8030   -0.9838 H         1 <0>         0.0766
     28 H8          6.8023   -3.8195    0.7960 H         1 <0>         0.0833
     29 H9          6.3068   -6.0729   -0.0222 H         1 <0>         0.0676
     30 H10         4.8492   -5.3989    0.7455 H         1 <0>         0.0551
     31 H11         4.3700   -6.3503   -1.3925 H         1 <0>         0.3842
@<TRIPOS>BOND
     1    1    5 2
     2    1    2 1
     3    1   21 1
     4    2    3 2
     5    2   22 1
     6    3    4 1
     7    3    6 1
     8    4    5 1
     9    5   23 1
    10    6    7 2
    11    6    8 1
    12    8   16 ar
    13    8    9 ar
    14    9   13 1
    15    9   10 ar
    16   10   11 1
    17   10   14 ar
    18   11   12 2
    19   11   24 1
    20   12   13 1
    21   12   25 1
    22   14   15 ar
    23   15   16 ar
    24   15   17 1
    25   17   18 1
    26   17   26 1
    27   18   19 1
    28   18   27 1
    29   18   28 1
    30   19   20 1
    31   19   29 1
    32   19   30 1
    33   20   31 1
