@<TRIPOS>MOLECULE
CHEMBL1095695
   29    31     0     0     0
SMALL
USER_CHARGES

@<TRIPOS>ATOM
      1 C1         -0.0184    1.5028    0.0103 C.3       1 <0>        -0.1142
      2 C2          0.0021   -0.0041    0.0020 C.2       1 <0>         0.4115
      3 N1          0.0053   -0.6386   -1.1399 N.2       1 <0>        -0.4879
      4 C3          0.0231   -1.9687   -1.1809 C.2       1 <0>         0.1036
      5 C4          0.0389   -2.7471   -0.0161 C.2       1 <0>        -0.2396
      6 C5          0.0582   -4.2044   -0.2124 C.2       1 <0>        -0.0732
      7 C6          0.0610   -4.6462   -1.4817 C.2       1 <0>        -0.1984
      8 S1          0.0342   -3.1752   -2.4803 S.3       1 <0>         0.1860
      9 C7          0.0869   -6.1490   -1.5600 C.3       1 <0>        -0.0323
     10 C8          0.5347   -6.6029   -0.1532 C.3       1 <0>        -0.1172
     11 C9          0.0737   -5.4192    0.7196 C.3       1 <0>        -0.0626
     12 C10         0.0347   -2.0225    1.2198 C.2       1 <0>         0.5544
     13 O1          0.0482   -2.6132    2.2860 O.2       1 <0>        -0.5149
     14 N2          0.0224   -0.6764    1.1815 N.am      1 <0>        -0.5271
     15 C11         0.0242    0.0776    2.4376 C.3       1 <0>         0.2030
     16 C12        -1.3628    0.3114    2.8716 C.1       1 <0>        -0.2287
     17 C13        -2.4690    0.4978    3.2177 C.1       1 <0>        -0.1453
     18 H1          1.0042    1.8801    0.0026 H         1 <0>         0.1075
     19 H2         -0.5455    1.8639   -0.8728 H         1 <0>         0.1099
     20 H3         -0.5286    1.8543    0.9071 H         1 <0>         0.0935
     21 H4         -0.9071   -6.5353   -1.7857 H         1 <0>         0.0884
     22 H5          0.8038   -6.4784   -2.3121 H         1 <0>         0.0830
     23 H6          0.0293   -7.5233    0.1391 H         1 <0>         0.0865
     24 H7          1.6172   -6.7227   -0.1081 H         1 <0>         0.0781
     25 H8          0.7759   -5.2580    1.5375 H         1 <0>         0.0797
     26 H9         -0.9261   -5.6065    1.1115 H         1 <0>         0.0820
     27 H10         0.5531   -0.4915    3.2022 H         1 <0>         0.1259
     28 H11         0.5238    1.0345    2.2863 H         1 <0>         0.1238
     29 H12        -3.4584    0.6646    3.5272 H         1 <0>         0.2245
@<TRIPOS>BOND
     1    1    2 1
     2    1   18 1
     3    1   19 1
     4    1   20 1
     5    2   14 1
     6    2    3 2
     7    3    4 1
     8    4    8 1
     9    4    5 2
    10    5    6 1
    11    5   12 1
    12    6   11 1
    13    6    7 2
    14    7    8 1
    15    7    9 1
    16    9   10 1
    17    9   21 1
    18    9   22 1
    19   10   11 1
    20   10   23 1
    21   10   24 1
    22   11   25 1
    23   11   26 1
    24   12   13 2
    25   12   14 am
    26   14   15 1
    27   15   16 1
    28   15   27 1
    29   15   28 1
    30   16   17 3
    31   17   29 1
