@<TRIPOS>MOLECULE
CHEMBL1088253
   42    45     0     0     0
SMALL
USER_CHARGES

@<TRIPOS>ATOM
      1 C1          0.0180   -1.1779   -0.0044 C.1       1 <0>        -0.1449
      2 C2          0.0021   -0.0041    0.0020 C.1       1 <0>        -0.2282
      3 C3         -0.0179    1.4678    0.0101 C.3       1 <0>         0.2024
      4 N1          1.3565    1.9749   -0.0003 N.am      1 <0>        -0.5253
      5 C4          1.9937    2.1934    1.1787 C.2       1 <0>         0.4073
      6 N2          3.2190    2.6449    1.2117 N.2       1 <0>        -0.4712
      7 C5          3.8820    2.9048    0.0882 C.2       1 <0>         0.1049
      8 C6          3.3070    2.7102   -1.1776 C.2       1 <0>        -0.2457
      9 C7          1.9638    2.2094   -1.1785 C.2       1 <0>         0.5558
     10 O1          1.3799    2.0034   -2.2284 O.2       1 <0>        -0.5145
     11 C8          4.1540    3.0396   -2.3232 C.2       1 <0>        -0.0507
     12 C9          5.3962    3.4946   -2.0552 C.2       1 <0>        -0.1692
     13 S1          5.5079    3.5102   -0.2862 S.3       1 <0>         0.1478
     14 C10         6.4481    3.8969   -3.0433 C.3       1 <0>        -0.0372
     15 C11         6.0414    3.3680   -4.4262 C.3       1 <0>        -0.1152
     16 C12         4.5724    3.7218   -4.6752 C.3       1 <0>        -0.1229
     17 C13         3.6747    2.8841   -3.7638 C.3       1 <0>        -0.0589
     18 C14         1.2742    1.9106    2.4723 C.3       1 <0>        -0.0325
     19 C15         2.1821    2.2291    3.6322 C.ar      1 <0>        -0.0804
     20 C16         3.0164    1.2531    4.1446 C.ar      1 <0>        -0.0691
     21 C17         3.8498    1.5442    5.2079 C.ar      1 <0>        -0.1513
     22 C18         3.8489    2.8140    5.7600 C.ar      1 <0>         0.1037
     23 C19         3.0130    3.7907    5.2459 C.ar      1 <0>        -0.1513
     24 C20         2.1843    3.4987    4.1792 C.ar      1 <0>        -0.0694
     25 F1          4.6629    3.0996    6.7998 F         1 <0>        -0.1392
     26 H1          0.0322   -2.2278   -0.0102 H         1 <0>         0.2242
     27 H2         -0.5451    1.8289   -0.8729 H         1 <0>         0.1270
     28 H3         -0.5281    1.8193    0.9069 H         1 <0>         0.1216
     29 H4          6.5261    4.9836   -3.0743 H         1 <0>         0.0864
     30 H5          7.4072    3.4676   -2.7536 H         1 <0>         0.0844
     31 H6          6.6638    3.8308   -5.1921 H         1 <0>         0.0764
     32 H7          6.1668    2.2856   -4.4550 H         1 <0>         0.0691
     33 H8          4.4142    4.7798   -4.4662 H         1 <0>         0.0661
     34 H9          4.3222    3.5181   -5.7164 H         1 <0>         0.0717
     35 H10         3.7329    1.8358   -4.0570 H         1 <0>         0.0780
     36 H11         2.6449    3.2317   -3.8457 H         1 <0>         0.0854
     37 H12         0.3780    2.5281    2.5322 H         1 <0>         0.1169
     38 H13         0.9933    0.8580    2.5092 H         1 <0>         0.1156
     39 H14         3.0166    0.2626    3.7140 H         1 <0>         0.1295
     40 H15         4.5011    0.7815    5.6083 H         1 <0>         0.1358
     41 H16         3.0113    4.7814    5.6760 H         1 <0>         0.1362
     42 H17         1.5354    4.2617    3.7752 H         1 <0>         0.1308
@<TRIPOS>BOND
     1    1    2 3
     2    1   26 1
     3    2    3 1
     4    3    4 1
     5    3   27 1
     6    3   28 1
     7    4    9 am
     8    4    5 1
     9    5    6 2
    10    5   18 1
    11    6    7 1
    12    7   13 1
    13    7    8 2
    14    8    9 1
    15    8   11 1
    16    9   10 2
    17   11   17 1
    18   11   12 2
    19   12   13 1
    20   12   14 1
    21   14   15 1
    22   14   29 1
    23   14   30 1
    24   15   16 1
    25   15   31 1
    26   15   32 1
    27   16   17 1
    28   16   33 1
    29   16   34 1
    30   17   35 1
    31   17   36 1
    32   18   19 1
    33   18   37 1
    34   18   38 1
    35   19   24 ar
    36   19   20 ar
    37   20   21 ar
    38   20   39 1
    39   21   22 ar
    40   21   40 1
    41   22   23 ar
    42   22   25 1
    43   23   24 ar
    44   23   41 1
    45   24   42 1
