@<TRIPOS>MOLECULE
CHEMBL323621
   48    51     0     0     0
SMALL
USER_CHARGES

@<TRIPOS>ATOM
      1 C1          2.4790   -1.8832   -0.6342 C.3       1 <0>        -0.1701
      2 C2          2.1794   -0.5220   -1.2652 C.3       1 <0>         0.1087
      3 N1          0.7324   -0.2929   -1.2679 N.am      1 <0>        -0.6025
      4 C3          0.0789    0.2775   -0.0873 C.3       1 <0>         0.1112
      5 C4          0.0625    1.8032   -0.2007 C.3       1 <0>        -0.0874
      6 C5         -0.6098    2.3900    1.0137 C.ar      1 <0>         0.1286
      7 C6          0.0532    3.3378    1.7705 C.ar      1 <0>        -0.1678
      8 C7         -0.5741    3.8713    2.8857 C.ar      1 <0>        -0.0718
      9 C8         -1.8506    3.4295    3.1994 C.ar      1 <0>        -0.1750
     10 C9         -2.4506    2.4790    2.3958 C.ar      1 <0>         0.1049
     11 N2         -1.8258    1.9973    1.3390 N.ar      1 <0>        -0.4787
     12 C10         0.0025   -0.6069   -2.3565 C.2       1 <0>         0.5682
     13 O1          0.5277   -1.1644   -3.3003 O.2       1 <0>        -0.5130
     14 C11        -1.4373   -0.2733   -2.4026 C.2       1 <0>         0.0034
     15 C12        -1.8838    0.8631   -3.1096 C.2       1 <0>        -0.2348
     16 C13        -3.2102    1.1623   -3.1472 C.2       1 <0>         0.4618
     17 N3         -4.1212    0.3746   -2.5072 N.pl3     1 <0>        -0.3139
     18 C14        -3.7252   -0.7351   -1.8119 C.2       1 <0>         0.3409
     19 C15        -2.3645   -1.0773   -1.7561 C.2       1 <0>        -0.1384
     20 N4         -4.8138   -1.2991   -1.3000 N.2       1 <0>        -0.5208
     21 C16        -5.8897   -0.5898   -1.6434 C.2       1 <0>         0.3432
     22 N5         -5.5168    0.4424   -2.3812 N.2       1 <0>        -0.3246
     23 C17        -7.2809   -0.9076   -1.2594 C.2       1 <0>         0.0708
     24 C18        -7.6771   -1.9612   -0.4972 C.2       1 <0>        -0.1295
     25 C19        -9.0788   -1.8763   -0.3842 C.2       1 <0>        -0.1557
     26 C20        -9.4655   -0.7853   -1.0766 C.2       1 <0>        -0.0108
     27 O2         -8.3760   -0.1999   -1.5993 O.3       1 <0>        -0.1445
     28 Br1       -11.2453   -0.1774   -1.2729 Br        1 <0>         0.0648
     29 N6         -3.6404    2.2797   -3.8429 N.pl3     1 <0>        -0.8440
     30 H1          2.1068   -1.8988    0.3901 H         1 <0>         0.0571
     31 H2          1.9882   -2.6670   -1.2111 H         1 <0>         0.0617
     32 H3          3.5556   -2.0537   -0.6322 H         1 <0>         0.0691
     33 H4          2.6703    0.2618   -0.6883 H         1 <0>         0.0801
     34 H5          2.5516   -0.5065   -2.2895 H         1 <0>         0.0894
     35 H6         -0.9442   -0.0931   -0.0237 H         1 <0>         0.0969
     36 H7          0.6274   -0.0144    0.8082 H         1 <0>         0.0853
     37 H8          1.0855    2.1739   -0.2643 H         1 <0>         0.0850
     38 H9         -0.4861    2.0951   -1.0963 H         1 <0>         0.0870
     39 H10         1.0475    3.6584    1.4967 H         1 <0>         0.1347
     40 H11        -0.0802    4.6130    3.4959 H         1 <0>         0.1353
     41 H12        -2.3690    3.8232    4.0612 H         1 <0>         0.1354
     42 H13        -3.4446    2.1298    2.6333 H         1 <0>         0.1548
     43 H14        -1.1726    1.4953   -3.6204 H         1 <0>         0.1615
     44 H15        -2.0433   -1.9540   -1.2133 H         1 <0>         0.1613
     45 H16        -7.0403   -2.7174   -0.0625 H         1 <0>         0.1733
     46 H17        -9.7219   -2.5562    0.1548 H         1 <0>         0.1708
     47 H18        -2.9971    2.8439   -4.2998 H         1 <0>         0.4225
     48 H19        -4.5850    2.4982   -3.8733 H         1 <0>         0.4155
@<TRIPOS>BOND
     1    1    2 1
     2    1   30 1
     3    1   31 1
     4    1   32 1
     5    2    3 1
     6    2   33 1
     7    2   34 1
     8    3    4 1
     9    3   12 am
    10    4    5 1
    11    4   35 1
    12    4   36 1
    13    5    6 1
    14    5   37 1
    15    5   38 1
    16    6   11 ar
    17    6    7 ar
    18    7    8 ar
    19    7   39 1
    20    8    9 ar
    21    8   40 1
    22    9   10 ar
    23    9   41 1
    24   10   11 ar
    25   10   42 1
    26   12   13 2
    27   12   14 1
    28   14   19 2
    29   14   15 1
    30   15   16 2
    31   15   43 1
    32   16   17 1
    33   16   29 1
    34   17   22 1
    35   17   18 1
    36   18   19 1
    37   18   20 2
    38   19   44 1
    39   20   21 1
    40   21   22 2
    41   21   23 1
    42   23   27 1
    43   23   24 2
    44   24   25 1
    45   24   45 1
    46   25   26 2
    47   25   46 1
    48   26   27 1
    49   26   28 1
    50   29   47 1
    51   29   48 1
