@<TRIPOS>MOLECULE
CHEMBL603813
   59    62     0     0     0
SMALL
USER_CHARGES

@<TRIPOS>ATOM
      1 C1         -0.0187    1.5258    0.0104 C.3       1 <0>        -0.1678
      2 C2          0.0021   -0.0041    0.0020 C.3       1 <0>         0.1135
      3 N1          0.6878   -0.4765   -1.2033 N.am      1 <0>        -0.7272
      4 C3          0.8268   -1.7986   -1.4250 C.2       1 <0>         0.5161
      5 O1          0.3843   -2.5972   -0.6267 O.2       1 <0>        -0.5033
      6 C4          1.5322   -2.2846   -2.6649 C.3       1 <0>         0.0316
      7 H1          2.5323   -1.8560   -2.7290 H         1 <0>         0.1224
      8 C5          0.7085   -1.9402   -3.9319 C.3       1 <0>         0.0511
      9 H2         -0.3595   -2.0480   -3.7427 H         1 <0>         0.0953
     10 C6          1.2015   -3.0074   -4.9392 C.3       1 <0>         0.0825
     11 H3          0.3680   -3.3897   -5.5285 H         1 <0>         0.0903
     12 C7          1.7901   -4.1212   -4.0517 C.3       1 <0>         0.3135
     13 O2          1.5952   -3.7270   -2.6817 O.3       1 <0>        -0.3264
     14 N2          1.0956   -5.3847   -4.3118 N.pl3     1 <0>        -0.4738
     15 C8          0.0371   -5.8826   -3.6116 C.2       1 <0>         0.2704
     16 N3         -0.3305   -7.0259   -4.1137 N.2       1 <0>        -0.4565
     17 C9          0.4656   -7.3344   -5.1647 C.ar      1 <0>        -0.1022
     18 C10         1.3874   -6.2818   -5.3089 C.ar      1 <0>         0.3138
     19 N4          2.2866   -6.3378   -6.2830 N.ar      1 <0>        -0.5339
     20 C11         2.3169   -7.3703   -7.1145 C.ar      1 <0>         0.5023
     21 N5          1.4623   -8.3848   -7.0165 N.ar      1 <0>        -0.5716
     22 C12         0.5371   -8.4123   -6.0657 C.ar      1 <0>         0.5151
     23 N6         -0.3489   -9.4714   -5.9722 N.pl3     1 <0>        -0.8137
     24 C13         3.3026   -7.3937   -8.1530 C.1       1 <0>        -0.1286
     25 C14         4.1107   -7.4129   -9.0044 C.1       1 <0>        -0.0827
     26 C15         5.1240   -7.4370  -10.0719 C.3       1 <0>        -0.0117
     27 C16         4.9647   -8.7152  -10.8975 C.3       1 <0>        -0.1110
     28 C17         6.0179   -8.7403  -12.0070 C.3       1 <0>        -0.0818
     29 C18         5.8610   -9.9993  -12.8202 C.ar      1 <0>        -0.0827
     30 C19         6.5428  -11.1458  -12.4575 C.ar      1 <0>        -0.1175
     31 C20         6.3990  -12.3007  -13.2034 C.ar      1 <0>        -0.1185
     32 C21         5.5729  -12.3092  -14.3117 C.ar      1 <0>        -0.1252
     33 C22         4.8904  -11.1630  -14.6739 C.ar      1 <0>        -0.1186
     34 C23         5.0310  -10.0093  -13.9255 C.ar      1 <0>        -0.1176
     35 O3          2.2079   -2.4612   -5.7941 O.3       1 <0>        -0.5311
     36 O4          1.0116   -0.6227   -4.3947 O.3       1 <0>        -0.5360
     37 H4          1.0039    1.9031    0.0027 H         1 <0>         0.0645
     38 H5         -0.5459    1.8868   -0.8726 H         1 <0>         0.0637
     39 H6         -0.5289    1.8773    0.9072 H         1 <0>         0.0793
     40 H7          0.5293   -0.3651    0.8851 H         1 <0>         0.0731
     41 H8         -1.0205   -0.3814    0.0098 H         1 <0>         0.0728
     42 H9          1.0417    0.1622   -1.8418 H         1 <0>         0.3979
     43 H10         2.8552   -4.2328   -4.2545 H         1 <0>         0.1324
     44 H11        -0.4277   -5.3998   -2.7647 H         1 <0>         0.2272
     45 H12        -1.0284   -9.4756   -5.2800 H         1 <0>         0.4214
     46 H13        -0.2903  -10.2095   -6.5988 H         1 <0>         0.4124
     47 H14         4.9922   -6.5687  -10.7175 H         1 <0>         0.0972
     48 H15         6.1195   -7.4124   -9.6286 H         1 <0>         0.0973
     49 H16         5.0965   -9.5835  -10.2518 H         1 <0>         0.0714
     50 H17         3.9692   -8.7398  -11.3408 H         1 <0>         0.0713
     51 H18         5.8861   -7.8720  -12.6526 H         1 <0>         0.0762
     52 H19         7.0134   -8.7157  -11.5637 H         1 <0>         0.0763
     53 H20         7.1882  -11.1391  -11.5915 H         1 <0>         0.1215
     54 H21         6.9322  -13.1962  -12.9204 H         1 <0>         0.1212
     55 H22         5.4611  -13.2113  -14.8949 H         1 <0>         0.1204
     56 H23         4.2453  -11.1696  -15.5401 H         1 <0>         0.1212
     57 H24         4.4948   -9.1148  -14.2063 H         1 <0>         0.1214
     58 H25         1.9048   -1.7181   -6.3335 H         1 <0>         0.3970
     59 H26         0.8031    0.0753   -3.7587 H         1 <0>         0.3843
@<TRIPOS>BOND
     1    1    2 1
     2    1   37 1
     3    1   38 1
     4    1   39 1
     5    2    3 1
     6    2   40 1
     7    2   41 1
     8    3    4 am
     9    3   42 1
    10    4    5 2
    11    4    6 1
    12    6    7 1
    13    6   13 1
    14    6    8 1
    15    8    9 1
    16    8   10 1
    17    8   36 1
    18   10   11 1
    19   10   12 1
    20   10   35 1
    21   12   13 1
    22   12   14 1
    23   12   43 1
    24   14   18 1
    25   14   15 1
    26   15   16 2
    27   15   44 1
    28   16   17 1
    29   17   22 ar
    30   17   18 ar
    31   18   19 ar
    32   19   20 ar
    33   20   21 ar
    34   20   24 1
    35   21   22 ar
    36   22   23 1
    37   23   45 1
    38   23   46 1
    39   24   25 3
    40   25   26 1
    41   26   27 1
    42   26   47 1
    43   26   48 1
    44   27   28 1
    45   27   49 1
    46   27   50 1
    47   28   29 1
    48   28   51 1
    49   28   52 1
    50   29   34 ar
    51   29   30 ar
    52   30   31 ar
    53   30   53 1
    54   31   32 ar
    55   31   54 1
    56   32   33 ar
    57   32   55 1
    58   33   34 ar
    59   33   56 1
    60   34   57 1
    61   35   58 1
    62   36   59 1
