@<TRIPOS>MOLECULE
CHEMBL373941
   75    81     0     0     0
SMALL
USER_CHARGES

@<TRIPOS>ATOM
      1 C1         -0.7615    0.7625    0.8326 C.ar      1 <0>        -0.0773
      2 C2          0.3418    1.5855    1.0004 C.ar      1 <0>        -0.1693
      3 C3          1.6084    1.0493    0.8672 C.ar      1 <0>         0.1075
      4 N1          1.7738   -0.2282    0.5842 N.ar      1 <0>        -0.4590
      5 C4          0.7481   -1.0400    0.4179 C.ar      1 <0>         0.1351
      6 C5         -0.5481   -0.5748    0.5358 C.ar      1 <0>        -0.1802
      7 C6          0.9920   -2.4918    0.0956 C.3       1 <0>         0.0950
      8 N2          1.2143   -2.6421   -1.3487 N.3       1 <0>        -0.5096
      9 C7          1.6012   -4.0196   -1.6812 C.3       1 <0>         0.1094
     10 C8          2.9484   -4.3227   -1.0777 C.ar      1 <0>         0.1250
     11 C9          3.0205   -4.9528    0.1505 C.ar      1 <0>        -0.1688
     12 C10         4.2647   -5.2274    0.6967 C.ar      1 <0>        -0.0712
     13 C11         5.3949   -4.8564   -0.0160 C.ar      1 <0>        -0.1646
     14 C12         5.2445   -4.2296   -1.2383 C.ar      1 <0>         0.1046
     15 N3          4.0446   -3.9886   -1.7297 N.ar      1 <0>        -0.4640
     16 C13         0.0272   -2.2304   -2.1097 C.3       1 <0>         0.0419
     17 C14         0.0827   -0.7229   -2.3653 C.3       1 <0>        -0.1213
     18 H1          0.1588   -0.1937   -1.4154 H         1 <0>         0.1283
     19 C15         1.3004   -0.3939   -3.2357 C.3       1 <0>        -0.1166
     20 C16         1.1463   -1.1068   -4.5799 C.3       1 <0>        -0.1362
     21 C17        -0.1640   -0.6787   -5.2497 C.3       1 <0>         0.0161
     22 H2         -0.1390    0.3926   -5.4490 H         1 <0>         0.1440
     23 C18        -0.2870   -1.4451   -6.5738 C.3       1 <0>         0.1095
     24 N4         -1.6059   -1.1806   -7.1635 N.pl3     1 <0>        -0.5966
     25 C19        -2.7877   -1.3637   -6.3053 C.3       1 <0>         0.0893
     26 C20        -2.5609   -0.5738   -5.0145 C.3       1 <0>        -0.0217
     27 N5         -1.3011   -0.9895   -4.3773 N.4       1 <0>        -0.3797
     28 C21        -1.1830   -0.2805   -3.0984 C.3       1 <0>        -0.0025
     29 C22        -1.7317   -0.7773   -8.4664 C.2       1 <0>         0.6717
     30 N6         -2.9843   -0.5354   -8.9766 N.pl3     1 <0>        -0.6597
     31 C23        -3.1070    0.3090  -10.0799 C.2       1 <0>         0.6293
     32 N7         -2.0045    0.2993  -10.9185 N.pl3     1 <0>        -0.4292
     33 C24        -0.7863   -0.1623  -10.4640 C.2       1 <0>         0.4998
     34 N8         -0.6443   -0.6242   -9.2037 N.2       1 <0>        -0.5255
     35 N9          0.0674   -0.0463  -11.4486 N.2       1 <0>        -0.4816
     36 C25        -0.5531    0.4666  -12.5267 C.2       1 <0>         0.3439
     37 N10        -1.8242    0.6877  -12.2356 N.2       1 <0>        -0.2741
     38 C26         0.0854    0.7403  -13.8309 C.2       1 <0>         0.0284
     39 C27         1.3887    0.5128  -14.1446 C.2       1 <0>        -0.1215
     40 C28         1.5604    0.9172  -15.4834 C.2       1 <0>        -0.2192
     41 C29         0.3661    1.3669  -15.9162 C.2       1 <0>        -0.0005
     42 O1         -0.5239    1.2531  -14.9173 O.3       1 <0>        -0.1602
     43 N11        -4.1624    1.0395  -10.3018 N.2       1 <0>        -0.6699
     44 H3         -1.7632    1.1530    0.9350 H         1 <0>         0.1366
     45 H4          0.2129    2.6325    1.2319 H         1 <0>         0.1390
     46 H5          2.4729    1.6837    0.9960 H         1 <0>         0.1600
     47 H6         -1.3841   -1.2447    0.3988 H         1 <0>         0.1310
     48 H7          1.8711   -2.8414    0.6369 H         1 <0>         0.1031
     49 H8          0.1243   -3.0807    0.3928 H         1 <0>         0.0583
     50 H9          0.8600   -4.7117   -1.2815 H         1 <0>         0.0571
     51 H10         1.6550   -4.1305   -2.7642 H         1 <0>         0.0961
     52 H11         2.1191   -5.2273    0.6781 H         1 <0>         0.1301
     53 H12         4.3518   -5.7184    1.6547 H         1 <0>         0.1366
     54 H13         6.3802   -5.0544    0.3794 H         1 <0>         0.1382
     55 H14         6.1197   -3.9372   -1.7995 H         1 <0>         0.1585
     56 H15         0.0046   -2.7598   -3.0623 H         1 <0>         0.0693
     57 H16        -0.8707   -2.4694   -1.5398 H         1 <0>         0.0566
     58 H17         1.3549    0.6828   -3.3967 H         1 <0>         0.0739
     59 H18         2.2081   -0.7388   -2.7405 H         1 <0>         0.1147
     60 H19         1.9849   -0.8470   -5.2259 H         1 <0>         0.1179
     61 H20         1.1353   -2.1848   -4.4189 H         1 <0>         0.0929
     62 H21         0.4920   -1.1135   -7.2603 H         1 <0>         0.1531
     63 H22        -0.1790   -2.5136   -6.3875 H         1 <0>         0.1043
     64 H23        -3.6752   -0.9891   -6.8155 H         1 <0>         0.1273
     65 H24        -2.9142   -2.4211   -6.0729 H         1 <0>         0.1135
     66 H25        -2.5099    0.4902   -5.2456 H         1 <0>         0.1377
     67 H26        -3.3893   -0.7544   -4.3294 H         1 <0>         0.1517
     68 H27        -2.0532   -0.4959   -2.4783 H         1 <0>         0.1318
     69 H28        -1.1343    0.7918   -3.2879 H         1 <0>         0.1311
     70 H29         2.1460    0.1021  -13.4934 H         1 <0>         0.1636
     71 H30         2.4761    0.8751  -16.0545 H         1 <0>         0.1617
     72 H31         0.1582    1.7506  -16.9041 H         1 <0>         0.2156
     73 H32        -4.2005    1.6116  -11.0842 H         1 <0>         0.3846
     74 H33        -3.7682   -0.9442   -8.5774 H         1 <0>         0.4367
     75 H34        -1.3295   -1.9828   -4.2020 H         1 <0>         0.4185
@<TRIPOS>BOND
     1    1    6 ar
     2    1    2 ar
     3    1   44 1
     4    2    3 ar
     5    2   45 1
     6    3    4 ar
     7    3   46 1
     8    4    5 ar
     9    5    6 ar
    10    5    7 1
    11    6   47 1
    12    7    8 1
    13    7   48 1
    14    7   49 1
    15    8    9 1
    16    8   16 1
    17    9   10 1
    18    9   50 1
    19    9   51 1
    20   10   15 ar
    21   10   11 ar
    22   11   12 ar
    23   11   52 1
    24   12   13 ar
    25   12   53 1
    26   13   14 ar
    27   13   54 1
    28   14   15 ar
    29   14   55 1
    30   16   17 1
    31   16   56 1
    32   16   57 1
    33   17   18 1
    34   17   28 1
    35   17   19 1
    36   19   20 1
    37   19   58 1
    38   19   59 1
    39   20   21 1
    40   20   60 1
    41   20   61 1
    42   21   22 1
    43   21   27 1
    44   21   23 1
    45   23   24 1
    46   23   62 1
    47   23   63 1
    48   24   25 1
    49   24   29 1
    50   25   26 1
    51   25   64 1
    52   25   65 1
    53   26   27 1
    54   26   66 1
    55   26   67 1
    56   27   28 1
    57   27   75 1
    58   28   68 1
    59   28   69 1
    60   29   34 2
    61   29   30 1
    62   30   31 1
    63   30   74 1
    64   31   32 1
    65   31   43 2
    66   32   37 1
    67   32   33 1
    68   33   34 1
    69   33   35 2
    70   35   36 1
    71   36   37 2
    72   36   38 1
    73   38   42 1
    74   38   39 2
    75   39   40 1
    76   39   70 1
    77   40   41 2
    78   40   71 1
    79   41   42 1
    80   41   72 1
    81   43   73 1
