@<TRIPOS>MOLECULE
CHEMBL487572
   47    49     0     0     0
SMALL
USER_CHARGES

@<TRIPOS>ATOM
      1 C1         -0.2209    1.6523   -0.8070 C.3       1 <0>        -0.0736
      2 C2         -0.0893    0.1689   -0.5756 C.2       1 <0>         0.0914
      3 C3         -0.2434   -0.8283   -1.5461 C.2       1 <0>        -0.2646
      4 C4         -0.0487   -2.0257   -0.9485 C.2       1 <0>         0.1209
      5 N1          0.2209   -1.7916    0.3630 N.pl3     1 <0>        -0.3189
      6 N2          0.1938   -0.4055    0.5646 N.2       1 <0>        -0.2613
      7 C5          0.4826   -2.7585    1.3338 C.ar      1 <0>         0.5976
      8 N3          0.5922   -2.3870    2.5976 N.ar      1 <0>        -0.5195
      9 C6          0.8412   -3.2818    3.5528 C.ar      1 <0>         0.2709
     10 C7          0.9858   -4.6226    3.2025 C.ar      1 <0>        -0.2431
     11 C8          0.8630   -4.9723    1.8590 C.ar      1 <0>         0.4333
     12 N4          0.6089   -4.0228    0.9647 N.ar      1 <0>        -0.5282
     13 N5          0.9992   -6.2977    1.4603 N.am      1 <0>        -0.6541
     14 C9          0.9840   -6.6122    0.1499 C.2       1 <0>         0.5012
     15 O1          0.7588   -5.7543   -0.6770 O.2       1 <0>        -0.4681
     16 C10         1.2468   -8.0301   -0.2878 C.3       1 <0>        -0.1707
     17 C11         0.9632   -2.8565    4.9693 C.ar      1 <0>         0.1988
     18 C12         0.8106   -1.5141    5.3010 C.ar      1 <0>        -0.1719
     19 C13         0.9260   -1.1269    6.6276 C.ar      1 <0>        -0.0384
     20 C14         1.1906   -2.0958    7.5797 C.ar      1 <0>        -0.2185
     21 C15         1.3322   -3.4223    7.1806 C.ar      1 <0>         0.4035
     22 N6          1.2116   -3.7614    5.9081 N.ar      1 <0>        -0.5243
     23 N7          1.5985   -4.4013    8.1306 N.pl3     1 <0>        -0.6186
     24 C16         1.6201   -4.0544    9.5538 C.3       1 <0>         0.0940
     25 C17         1.8575   -5.7802    7.7088 C.3       1 <0>         0.0985
     26 C18        -0.1188   -3.3752   -1.6155 C.3       1 <0>        -0.0818
     27 H1          0.7495    2.0643   -1.0838 H         1 <0>         0.0815
     28 H2         -0.9349    1.8327   -1.6106 H         1 <0>         0.0820
     29 H3         -0.5726    2.1326    0.1061 H         1 <0>         0.0764
     30 H4         -0.4767   -0.6694   -2.5885 H         1 <0>         0.1584
     31 H5          1.1885   -5.3721    3.9532 H         1 <0>         0.1639
     32 H6          1.1053   -6.9958    2.1255 H         1 <0>         0.4254
     33 H7          0.3050   -8.5771   -0.3324 H         1 <0>         0.1000
     34 H8          1.7115   -8.0258   -1.2738 H         1 <0>         0.1013
     35 H9          1.9139   -8.5130    0.4262 H         1 <0>         0.0841
     36 H10         0.6049   -0.7819    4.5342 H         1 <0>         0.1486
     37 H11         0.8122   -0.0911    6.9117 H         1 <0>         0.1412
     38 H12         1.2865   -1.8259    8.6210 H         1 <0>         0.1381
     39 H13         0.6215   -4.1772    9.9729 H         1 <0>         0.0541
     40 H14         2.3168   -4.7094   10.0769 H         1 <0>         0.0736
     41 H15         1.9383   -3.0184    9.6704 H         1 <0>         0.0719
     42 H16         2.9257   -5.9133    7.5380 H         1 <0>         0.0477
     43 H17         1.5257   -6.4668    8.4877 H         1 <0>         0.0642
     44 H18         1.3137   -5.9864    6.7870 H         1 <0>         0.0776
     45 H19         0.8847   -3.6935   -1.8979 H         1 <0>         0.0849
     46 H20        -0.5489   -4.1002   -0.9245 H         1 <0>         0.0992
     47 H21        -0.7429   -3.3081   -2.5066 H         1 <0>         0.0713
@<TRIPOS>BOND
     1    1    2 1
     2    1   27 1
     3    1   28 1
     4    1   29 1
     5    2    6 2
     6    2    3 1
     7    3    4 2
     8    3   30 1
     9    4    5 1
    10    4   26 1
    11    5    6 1
    12    5    7 1
    13    7   12 ar
    14    7    8 ar
    15    8    9 ar
    16    9   10 ar
    17    9   17 1
    18   10   11 ar
    19   10   31 1
    20   11   12 ar
    21   11   13 1
    22   13   14 am
    23   13   32 1
    24   14   15 2
    25   14   16 1
    26   16   33 1
    27   16   34 1
    28   16   35 1
    29   17   22 ar
    30   17   18 ar
    31   18   19 ar
    32   18   36 1
    33   19   20 ar
    34   19   37 1
    35   20   21 ar
    36   20   38 1
    37   21   22 ar
    38   21   23 1
    39   23   24 1
    40   23   25 1
    41   24   39 1
    42   24   40 1
    43   24   41 1
    44   25   42 1
    45   25   43 1
    46   25   44 1
    47   26   45 1
    48   26   46 1
    49   26   47 1
