@<TRIPOS>MOLECULE
CHEMBL175824
   56    60     0     0     0
SMALL
USER_CHARGES

@<TRIPOS>ATOM
      1 C1         -0.0178    1.4648    0.0101 C.3       1 <0>         0.0157
      2 N1          0.0021   -0.0041    0.0020 N.3       1 <0>        -0.5362
      3 C2          0.7062   -0.5275    1.1802 C.3       1 <0>         0.0619
      4 C3         -0.0853   -0.1811    2.4430 C.3       1 <0>        -0.0773
      5 C4          0.6370   -0.7181    3.6517 C.ar      1 <0>        -0.0825
      6 C5          0.3684   -1.9956    4.1064 C.ar      1 <0>        -0.1155
      7 C6          1.0310   -2.4882    5.2151 C.ar      1 <0>        -0.1181
      8 C7          1.9624   -1.7034    5.8689 C.ar      1 <0>        -0.1243
      9 C8          2.2317   -0.4262    5.4136 C.ar      1 <0>        -0.1185
     10 C9          1.5722    0.0648    4.3023 C.ar      1 <0>        -0.1178
     11 C10         0.5996   -0.5156   -1.2387 C.3       1 <0>         0.0936
     12 C11        -0.2863   -0.1627   -2.4056 C.ar      1 <0>        -0.0868
     13 C12        -1.2904   -1.0303   -2.7974 C.ar      1 <0>        -0.0743
     14 C13        -2.1077   -0.7129   -3.8672 C.ar      1 <0>        -0.1231
     15 C14        -1.9255    0.4721   -4.5507 C.ar      1 <0>        -0.0850
     16 C15        -0.9154    1.3504   -4.1605 C.ar      1 <0>        -0.0600
     17 C16        -0.0982    1.0276   -3.0775 C.ar      1 <0>        -0.0630
     18 C17        -0.7145    2.6245   -4.8902 C.2       1 <0>         0.2542
     19 C18        -1.5344    2.9458   -5.9570 C.2       1 <0>        -0.2187
     20 C19        -1.3161    4.1633   -6.6268 C.2       1 <0>         0.3541
     21 N2         -1.9002    4.7584   -7.6549 N.2       1 <0>        -0.5240
     22 C20        -1.2972    5.9263   -7.8983 C.2       1 <0>         0.3542
     23 N3         -0.3159    6.1017   -7.0314 N.2       1 <0>        -0.3218
     24 N4         -0.3013    4.9787   -6.1944 N.pl3     1 <0>        -0.3621
     25 C21         0.4700    4.6026   -5.1368 C.2       1 <0>         0.6544
     26 N5          0.2589    3.4671   -4.5114 N.2       1 <0>        -0.5506
     27 N6          1.4844    5.4289   -4.7128 N.pl3     1 <0>        -0.8076
     28 C22        -1.6698    6.8733   -8.9702 C.2       1 <0>         0.0362
     29 C23        -2.6798    6.7081   -9.8650 C.2       1 <0>        -0.1265
     30 C24        -2.6749    7.8452  -10.6970 C.2       1 <0>        -0.2189
     31 C25        -1.6726    8.6400  -10.2733 C.2       1 <0>        -0.0076
     32 O1         -1.0713    8.0525   -9.2264 O.3       1 <0>        -0.1608
     33 H1          1.0047    1.8421    0.0024 H         1 <0>         0.0266
     34 H2         -0.5450    1.8259   -0.8730 H         1 <0>         0.0734
     35 H3         -0.5280    1.8163    0.9069 H         1 <0>         0.0705
     36 H4          0.8004   -1.6101    1.0960 H         1 <0>         0.0769
     37 H5          1.6983   -0.0800    1.2392 H         1 <0>         0.0365
     38 H6         -0.1795    0.9015    2.5272 H         1 <0>         0.0727
     39 H7         -1.0775   -0.6287    2.3841 H         1 <0>         0.0819
     40 H8         -0.3593   -2.6088    3.5956 H         1 <0>         0.1224
     41 H9          0.8206   -3.4860    5.5708 H         1 <0>         0.1220
     42 H10         2.4796   -2.0880    6.7355 H         1 <0>         0.1210
     43 H11         2.9591    0.1870    5.9246 H         1 <0>         0.1211
     44 H12         1.7853    1.0612    3.9444 H         1 <0>         0.1192
     45 H13         1.5829   -0.0671   -1.3803 H         1 <0>         0.0455
     46 H14         0.7003   -1.5990   -1.1736 H         1 <0>         0.0858
     47 H15        -1.4363   -1.9591   -2.2661 H         1 <0>         0.1275
     48 H16        -2.8898   -1.3941   -4.1685 H         1 <0>         0.1311
     49 H17        -2.5638    0.7185   -5.3863 H         1 <0>         0.1321
     50 H18         0.6832    1.7059   -2.7682 H         1 <0>         0.1332
     51 H19        -2.3234    2.2774   -6.2686 H         1 <0>         0.1673
     52 H20         1.6453    6.2712   -5.1661 H         1 <0>         0.4245
     53 H21         2.0389    5.1694   -3.9604 H         1 <0>         0.4292
     54 H22        -3.3553    5.8677   -9.9263 H         1 <0>         0.1632
     55 H23        -3.3471    8.0423  -11.5190 H         1 <0>         0.1598
     56 H24        -1.4008    9.5934  -10.7019 H         1 <0>         0.2135
@<TRIPOS>BOND
     1    1    2 1
     2    1   33 1
     3    1   34 1
     4    1   35 1
     5    2    3 1
     6    2   11 1
     7    3    4 1
     8    3   36 1
     9    3   37 1
    10    4    5 1
    11    4   38 1
    12    4   39 1
    13    5   10 ar
    14    5    6 ar
    15    6    7 ar
    16    6   40 1
    17    7    8 ar
    18    7   41 1
    19    8    9 ar
    20    8   42 1
    21    9   10 ar
    22    9   43 1
    23   10   44 1
    24   11   12 1
    25   11   45 1
    26   11   46 1
    27   12   17 ar
    28   12   13 ar
    29   13   14 ar
    30   13   47 1
    31   14   15 ar
    32   14   48 1
    33   15   16 ar
    34   15   49 1
    35   16   17 ar
    36   16   18 1
    37   17   50 1
    38   18   26 1
    39   18   19 2
    40   19   20 1
    41   19   51 1
    42   20   24 1
    43   20   21 2
    44   21   22 1
    45   22   23 2
    46   22   28 1
    47   23   24 1
    48   24   25 1
    49   25   26 2
    50   25   27 1
    51   27   52 1
    52   27   53 1
    53   28   32 1
    54   28   29 2
    55   29   30 1
    56   29   54 1
    57   30   31 2
    58   30   55 1
    59   31   32 1
    60   31   56 1
