@<TRIPOS>MOLECULE
CHEMBL1086977
   31    34     0     0     0
SMALL
USER_CHARGES

@<TRIPOS>ATOM
      1 C1         -0.0167    1.3824    0.0096 C.ar      1 <0>        -0.0934
      2 C2          1.1644    2.0975    0.0022 C.ar      1 <0>        -0.1029
      3 C3          2.3816    1.4344   -0.0135 C.ar      1 <0>        -0.0497
      4 C4          2.4138    0.0464   -0.0213 C.ar      1 <0>        -0.1469
      5 C5          1.2127   -0.6825   -0.0132 C.ar      1 <0>        -0.0410
      6 C6          0.0021   -0.0041    0.0020 C.ar      1 <0>        -0.0667
      7 C7          1.5389   -2.1309   -0.0234 C.ar      1 <0>         0.3095
      8 C8          2.9413   -2.2738   -0.0377 C.ar      1 <0>        -0.3432
      9 C9          3.4849   -3.5661   -0.0492 C.ar      1 <0>         0.3352
     10 N1          2.6529   -4.6074   -0.0462 N.ar      1 <0>        -0.5663
     11 C10         1.3413   -4.4297   -0.0327 C.ar      1 <0>         0.6038
     12 N2          0.7873   -3.2214   -0.0208 N.ar      1 <0>        -0.5585
     13 N3          0.5201   -5.5377   -0.0306 N.pl3     1 <0>        -0.8021
     14 C11         4.9533   -3.7700   -0.0649 C.ar      1 <0>        -0.0308
     15 C12         5.7935   -2.8890   -0.7524 C.ar      1 <0>        -0.1157
     16 C13         7.1552   -3.1160   -0.7406 C.ar      1 <0>         0.0974
     17 N4          7.6644   -4.1458   -0.0932 N.ar      1 <0>        -0.4694
     18 C14         6.9076   -5.0002    0.5674 C.ar      1 <0>         0.0909
     19 C15         5.5365   -4.8452    0.6121 C.ar      1 <0>        -0.1227
     20 C16         3.5359   -0.9258   -0.0369 C.2       1 <0>         0.4643
     21 O1          4.7211   -0.6599   -0.0478 O.2       1 <0>        -0.4127
     22 H1         -0.9611    1.9062    0.0260 H         1 <0>         0.1407
     23 H2          1.1399    3.1772    0.0083 H         1 <0>         0.1413
     24 H3          3.3036    1.9967   -0.0200 H         1 <0>         0.1415
     25 H4         -0.9260   -0.5564    0.0083 H         1 <0>         0.1402
     26 H5          0.9062   -6.4275   -0.0390 H         1 <0>         0.4217
     27 H6         -0.4435   -5.4273   -0.0207 H         1 <0>         0.4208
     28 H7          5.3833   -2.0438   -1.2850 H         1 <0>         0.1471
     29 H8          7.8124   -2.4412   -1.2690 H         1 <0>         0.1630
     30 H9          7.3670   -5.8302    1.0836 H         1 <0>         0.1622
     31 H10         4.9232   -5.5461    1.1589 H         1 <0>         0.1422
@<TRIPOS>BOND
     1    1    6 ar
     2    1    2 ar
     3    1   22 1
     4    2    3 ar
     5    2   23 1
     6    3    4 ar
     7    3   24 1
     8    4   20 1
     9    4    5 ar
    10    5    6 ar
    11    5    7 1
    12    6   25 1
    13    7   12 ar
    14    7    8 ar
    15    8    9 ar
    16    8   20 1
    17    9   10 ar
    18    9   14 1
    19   10   11 ar
    20   11   12 ar
    21   11   13 1
    22   13   26 1
    23   13   27 1
    24   14   19 ar
    25   14   15 ar
    26   15   16 ar
    27   15   28 1
    28   16   17 ar
    29   16   29 1
    30   17   18 ar
    31   18   19 ar
    32   18   30 1
    33   19   31 1
    34   20   21 2
