@<TRIPOS>MOLECULE
CHEMBL312449
   27    29     0     0     0
SMALL
USER_CHARGES

@<TRIPOS>ATOM
      1 C1         -0.1971   -1.1743    0.9673 C.3       1 <0>        -0.1563
      2 C2          0.0021   -0.0041    0.0020 C.3       1 <0>        -0.0495
      3 C3          0.7074   -0.4901   -1.2379 C.2       1 <0>         0.2041
      4 N1          0.1395   -0.8313   -2.3689 N.2       1 <0>        -0.2599
      5 N2          1.0335   -1.1986   -3.2199 N.2       1 <0>        -0.2276
      6 C4          2.2245   -1.1084   -2.6677 C.2       1 <0>         0.1188
      7 N3          2.0369   -0.6473   -1.3876 N.pl3     1 <0>        -0.3790
      8 C5          3.1384   -0.4527   -0.5707 C.ar      1 <0>         0.0602
      9 C6          2.9786    0.0095    0.7295 C.ar      1 <0>        -0.0903
     10 C7          4.0817    0.2004    1.5360 C.ar      1 <0>        -0.0315
     11 C8          5.3576   -0.0676    1.0561 C.ar      1 <0>        -0.0077
     12 C9          5.5358   -0.5266   -0.2293 C.ar      1 <0>        -0.0685
     13 C10         4.4265   -0.7254   -1.0614 C.ar      1 <0>         0.1721
     14 N4          4.6054   -1.1787   -2.3287 N.2       1 <0>        -0.5480
     15 C11         3.5865   -1.3824   -3.1324 C.2       1 <0>         0.5236
     16 N5          3.8000   -1.8421   -4.4183 N.pl3     1 <0>        -0.7962
     17 Cl1         6.7353    0.1784    2.0834 Cl        1 <0>        -0.0257
     18 Cl2         3.8741    0.7793    3.1595 Cl        1 <0>        -0.0277
     19 H1         -0.7991   -1.9446    0.4851 H         1 <0>         0.0701
     20 H2          0.7731   -1.5893    1.2403 H         1 <0>         0.0566
     21 H3         -0.7073   -0.8228    1.8641 H         1 <0>         0.0811
     22 H4         -0.9682    0.4109   -0.2710 H         1 <0>         0.1153
     23 H5          0.6040    0.7662    0.4842 H         1 <0>         0.0918
     24 H6          1.9897    0.2199    1.1095 H         1 <0>         0.1600
     25 H7          6.5303   -0.7333   -0.5961 H         1 <0>         0.1665
     26 H8          3.0476   -1.9836   -5.0139 H         1 <0>         0.4251
     27 H9          4.7022   -2.0233   -4.7250 H         1 <0>         0.4227
@<TRIPOS>BOND
     1    1    2 1
     2    1   19 1
     3    1   20 1
     4    1   21 1
     5    2    3 1
     6    2   22 1
     7    2   23 1
     8    3    7 1
     9    3    4 2
    10    4    5 1
    11    5    6 2
    12    6   15 1
    13    6    7 1
    14    7    8 1
    15    8   13 ar
    16    8    9 ar
    17    9   10 ar
    18    9   24 1
    19   10   11 ar
    20   10   18 1
    21   11   12 ar
    22   11   17 1
    23   12   13 ar
    24   12   25 1
    25   13   14 1
    26   14   15 2
    27   15   16 1
    28   16   26 1
    29   16   27 1
