@<TRIPOS>MOLECULE
CHEMBL611527
   51    54     0     0     0
SMALL
USER_CHARGES

@<TRIPOS>ATOM
      1 C1         -0.0164    1.3590    0.0095 C.2       1 <0>         0.2683
      2 N1          1.2006    1.8206    0.0004 N.2       1 <0>        -0.4576
      3 C2          2.0754    0.7871   -0.0135 C.ar      1 <0>        -0.1016
      4 C3          3.4784    0.6816   -0.0279 C.ar      1 <0>         0.5148
      5 N2          4.0240   -0.5276   -0.0400 N.ar      1 <0>        -0.5704
      6 C4          3.2683   -1.6225   -0.0386 C.ar      1 <0>         0.4966
      7 N3          1.9438   -1.5670   -0.0257 N.ar      1 <0>        -0.5275
      8 C5          1.3171   -0.3971   -0.0127 C.ar      1 <0>         0.3165
      9 N4          0.0021   -0.0041    0.0020 N.pl3     1 <0>        -0.4691
     10 C6         -1.1668   -0.8871    0.0089 C.3       1 <0>         0.3127
     11 C7         -1.5540   -1.2556    1.4583 C.3       1 <0>         0.0790
     12 H1         -1.1953   -0.4970    2.1540 H         1 <0>         0.0861
     13 C8         -3.0987   -1.2847    1.4384 C.3       1 <0>         0.0476
     14 H2         -3.5036   -0.5406    2.1242 H         1 <0>         0.0877
     15 C9         -3.4621   -0.9305   -0.0207 C.3       1 <0>         0.0504
     16 H3         -3.6135   -1.8381   -0.6051 H         1 <0>         0.1005
     17 O1         -2.3213   -0.1972   -0.5174 O.3       1 <0>        -0.3463
     18 C10        -4.7178   -0.0573   -0.0599 C.3       1 <0>         0.0823
     19 O2         -5.1032    0.1621   -1.4183 O.3       1 <0>        -0.5634
     20 O3         -3.5792   -2.5878    1.7747 O.3       1 <0>        -0.5387
     21 O4         -1.0307   -2.5391    1.8055 O.3       1 <0>        -0.5258
     22 C11         3.9070   -2.9041   -0.0520 C.1       1 <0>        -0.0996
     23 C12         4.4307   -3.9548   -0.0630 C.1       1 <0>        -0.1111
     24 C13         5.0872   -5.2722   -0.0768 C.3       1 <0>         0.2488
     25 C14         5.9479   -5.4000   -1.3353 C.3       1 <0>        -0.1395
     26 C15         5.0627   -5.2583   -2.5751 C.3       1 <0>        -0.1209
     27 C16         3.9992   -6.3583   -2.5707 C.3       1 <0>        -0.1222
     28 C17         3.1385   -6.2305   -1.3123 C.3       1 <0>        -0.1215
     29 C18         4.0237   -6.3721   -0.0724 C.3       1 <0>        -0.1023
     30 O5          5.9140   -5.4045    1.0812 O.3       1 <0>        -0.5452
     31 N5          4.2724    1.8152   -0.0299 N.pl3     1 <0>        -0.8136
     32 H4         -0.9093    1.9664    0.0254 H         1 <0>         0.2260
     33 H5         -0.9651   -1.7870   -0.5722 H         1 <0>         0.1242
     34 H6         -5.5265   -0.5599    0.4706 H         1 <0>         0.0673
     35 H7         -4.5097    0.9001    0.4179 H         1 <0>         0.0612
     36 H8         -5.8941    0.7093   -1.5193 H         1 <0>         0.3870
     37 H9         -4.5433   -2.6629    1.7773 H         1 <0>         0.3877
     38 H10        -1.2440   -2.8205    2.7057 H         1 <0>         0.3910
     39 H11         6.7056   -4.6164   -1.3384 H         1 <0>         0.0717
     40 H12         6.4341   -6.3755   -1.3455 H         1 <0>         0.0853
     41 H13         4.5765   -4.2828   -2.5649 H         1 <0>         0.0646
     42 H14         5.6759   -5.3494   -3.4717 H         1 <0>         0.0690
     43 H15         3.3685   -6.2574   -3.4540 H         1 <0>         0.0657
     44 H16         4.4854   -7.3338   -2.5809 H         1 <0>         0.0662
     45 H17         2.6523   -5.2550   -1.3021 H         1 <0>         0.0686
     46 H18         2.3808   -7.0141   -1.3092 H         1 <0>         0.0728
     47 H19         4.5099   -7.3477   -0.0826 H         1 <0>         0.0831
     48 H20         3.4106   -6.2811    0.8241 H         1 <0>         0.0758
     49 H21         6.6122   -4.7384    1.1442 H         1 <0>         0.3840
     50 H22         3.8626    2.6943   -0.0213 H         1 <0>         0.4212
     51 H23         5.2386    1.7306   -0.0398 H         1 <0>         0.4125
@<TRIPOS>BOND
     1    1    9 1
     2    1    2 2
     3    1   32 1
     4    2    3 1
     5    3    8 ar
     6    3    4 ar
     7    4    5 ar
     8    4   31 1
     9    5    6 ar
    10    6    7 ar
    11    6   22 1
    12    7    8 ar
    13    8    9 1
    14    9   10 1
    15   10   17 1
    16   10   11 1
    17   10   33 1
    18   11   12 1
    19   11   13 1
    20   11   21 1
    21   13   14 1
    22   13   15 1
    23   13   20 1
    24   15   16 1
    25   15   17 1
    26   15   18 1
    27   18   19 1
    28   18   34 1
    29   18   35 1
    30   19   36 1
    31   20   37 1
    32   21   38 1
    33   22   23 3
    34   23   24 1
    35   24   29 1
    36   24   25 1
    37   24   30 1
    38   25   26 1
    39   25   39 1
    40   25   40 1
    41   26   27 1
    42   26   41 1
    43   26   42 1
    44   27   28 1
    45   27   43 1
    46   27   44 1
    47   28   29 1
    48   28   45 1
    49   28   46 1
    50   29   47 1
    51   29   48 1
    52   30   49 1
    53   31   50 1
    54   31   51 1
