@<TRIPOS>MOLECULE
CHEMBL576185
   55    59     0     0     0
SMALL
USER_CHARGES

@<TRIPOS>ATOM
      1 C1         -0.0187    1.5258    0.0104 C.3       1 <0>        -0.1487
      2 C2          0.0021   -0.0041    0.0020 C.3       1 <0>        -0.0926
      3 C3          0.7421   -0.5109    1.2415 C.3       1 <0>        -0.1546
      4 C4         -1.4333   -0.5336    0.0129 C.3       1 <0>        -0.1304
      5 C5         -1.4157   -2.0577   -0.1212 C.3       1 <0>         0.1246
      6 N1         -2.7901   -2.5647   -0.1108 N.pl3     1 <0>        -0.3345
      7 C6         -3.3331   -3.3476   -1.0594 C.2       1 <0>         0.1575
      8 C7         -4.6284   -3.6099   -0.6953 C.2       1 <0>        -0.2674
      9 C8         -4.8595   -2.9161    0.5818 C.2       1 <0>         0.3006
     10 N2         -3.7343   -2.3123    0.8913 N.2       1 <0>        -0.2470
     11 N3         -6.0842   -3.0200    1.1619 N.2       1 <0>        -0.4468
     12 C9         -7.0469   -3.7117    0.6195 C.2       1 <0>         0.6508
     13 N4         -6.9246   -4.3893   -0.5636 N.pl3     1 <0>        -0.3753
     14 C10        -5.7467   -4.3744   -1.2616 C.2       1 <0>         0.4112
     15 N5         -5.9074   -5.0974   -2.3471 N.2       1 <0>        -0.5122
     16 C11        -7.1549   -5.5855   -2.3824 C.2       1 <0>         0.3453
     17 N6         -7.8096   -5.1792   -1.3124 N.2       1 <0>        -0.2920
     18 C12        -7.7084   -6.4444   -3.4500 C.2       1 <0>         0.0429
     19 C13        -8.9731   -6.9408   -3.4993 C.2       1 <0>        -0.1367
     20 C14        -9.0653   -7.6999   -4.6828 C.2       1 <0>        -0.2191
     21 C15        -7.8649   -7.6300   -5.2911 C.2       1 <0>        -0.0050
     22 O1         -7.0492   -6.8667   -4.5462 O.3       1 <0>        -0.1533
     23 N7         -8.2609   -3.7642    1.2771 N.am      1 <0>        -0.6459
     24 C16        -8.4234   -3.1114    2.4450 C.2       1 <0>         0.5070
     25 O2         -7.5042   -2.4780    2.9186 O.2       1 <0>        -0.4319
     26 C17        -9.7475   -3.1687    3.1622 C.3       1 <0>        -0.0931
     27 C18        -9.6660   -2.3620    4.4325 C.ar      1 <0>        -0.0643
     28 C19        -9.2589   -2.9642    5.6087 C.ar      1 <0>        -0.0965
     29 C20        -9.1839   -2.2249    6.7742 C.ar      1 <0>        -0.1044
     30 C21        -9.5164   -0.8832    6.7646 C.ar      1 <0>        -0.1051
     31 C22        -9.9237   -0.2802    5.5882 C.ar      1 <0>        -0.0329
     32 C23        -9.9928   -1.0194    4.4204 C.ar      1 <0>        -0.0928
     33 Cl1       -10.3414    1.4047    5.5754 Cl        1 <0>        -0.0679
     34 H1          1.0039    1.9031    0.0027 H         1 <0>         0.0588
     35 H2         -0.5459    1.8868   -0.8726 H         1 <0>         0.0555
     36 H3         -0.5289    1.8773    0.9072 H         1 <0>         0.0574
     37 H4          0.5123   -0.3556   -0.8948 H         1 <0>         0.0740
     38 H5          0.2319   -0.1594    2.1383 H         1 <0>         0.0591
     39 H6          0.7568   -1.6008    1.2356 H         1 <0>         0.0555
     40 H7          1.7647   -0.1336    1.2338 H         1 <0>         0.0587
     41 H8         -1.9156   -0.2570    0.9504 H         1 <0>         0.0843
     42 H9         -1.9862   -0.1019   -0.8214 H         1 <0>         0.0718
     43 H10        -0.9334   -2.3344   -1.0587 H         1 <0>         0.1079
     44 H11        -0.8628   -2.4894    0.7131 H         1 <0>         0.1003
     45 H12        -2.8374   -3.7054   -1.9497 H         1 <0>         0.2002
     46 H13        -9.7557   -6.7840   -2.7718 H         1 <0>         0.1607
     47 H14        -9.9337   -8.2362   -5.0357 H         1 <0>         0.1595
     48 H15        -7.6034   -8.1059   -6.2247 H         1 <0>         0.2139
     49 H16        -8.9962   -4.2709    0.8982 H         1 <0>         0.4307
     50 H17       -10.5266   -2.7577    2.5202 H         1 <0>         0.1154
     51 H18        -9.9851   -4.2046    3.4043 H         1 <0>         0.1168
     52 H19        -8.9998   -4.0126    5.6169 H         1 <0>         0.1288
     53 H20        -8.8659   -2.6958    7.6927 H         1 <0>         0.1345
     54 H21        -9.4584   -0.3059    7.6755 H         1 <0>         0.1344
     55 H22       -10.3065   -0.5481    3.5007 H         1 <0>         0.1324
@<TRIPOS>BOND
     1    1    2 1
     2    1   34 1
     3    1   35 1
     4    1   36 1
     5    2    3 1
     6    2    4 1
     7    2   37 1
     8    3   38 1
     9    3   39 1
    10    3   40 1
    11    4    5 1
    12    4   41 1
    13    4   42 1
    14    5    6 1
    15    5   43 1
    16    5   44 1
    17    6   10 1
    18    6    7 1
    19    7    8 2
    20    7   45 1
    21    8   14 1
    22    8    9 1
    23    9   10 2
    24    9   11 1
    25   11   12 2
    26   12   13 1
    27   12   23 1
    28   13   17 1
    29   13   14 1
    30   14   15 2
    31   15   16 1
    32   16   17 2
    33   16   18 1
    34   18   22 1
    35   18   19 2
    36   19   20 1
    37   19   46 1
    38   20   21 2
    39   20   47 1
    40   21   22 1
    41   21   48 1
    42   23   24 am
    43   23   49 1
    44   24   25 2
    45   24   26 1
    46   26   27 1
    47   26   50 1
    48   26   51 1
    49   27   32 ar
    50   27   28 ar
    51   28   29 ar
    52   28   52 1
    53   29   30 ar
    54   29   53 1
    55   30   31 ar
    56   30   54 1
    57   31   32 ar
    58   31   33 1
    59   32   55 1
