@<TRIPOS>MOLECULE
CHEMBL325237
   38    41     0     0     0
SMALL
USER_CHARGES

@<TRIPOS>ATOM
      1 C1         -0.0295    1.3752    0.0327 C.2       1 <0>        -0.1267
      2 C2          1.3125    1.8037    0.0246 C.2       1 <0>        -0.1562
      3 C3          2.0809    0.6952    0.0063 C.2       1 <0>        -0.0085
      4 O1          1.2801   -0.3825    0.0028 O.3       1 <0>        -0.1441
      5 C4         -0.0071    0.0160    0.0188 C.2       1 <0>         0.0664
      6 C5         -1.1892   -0.8707    0.0212 C.2       1 <0>         0.3459
      7 N1         -2.4589   -0.4631    0.0317 N.2       1 <0>        -0.5193
      8 C6         -3.2666   -1.5180    0.0299 C.2       1 <0>         0.3356
      9 C7         -4.6653   -1.6413    0.0378 C.2       1 <0>        -0.1416
     10 C8         -5.2333   -2.9068    0.0332 C.2       1 <0>        -0.0002
     11 C9         -4.3930   -4.0399    0.0208 C.2       1 <0>        -0.2359
     12 C10        -3.0417   -3.8839    0.0133 C.2       1 <0>         0.4624
     13 N2         -2.4833   -2.6397    0.0178 N.pl3     1 <0>        -0.3171
     14 N3         -1.1536   -2.1927    0.0075 N.2       1 <0>        -0.3221
     15 N4         -2.2237   -5.0013    0.0011 N.pl3     1 <0>        -0.8413
     16 C11        -6.7033   -3.0663    0.0419 C.2       1 <0>         0.5690
     17 O2         -7.2717   -3.4065    1.0610 O.2       1 <0>        -0.5088
     18 N5         -7.4129   -2.8346   -1.0803 N.am      1 <0>        -0.6078
     19 C12        -8.8752   -2.8773   -1.0327 C.3       1 <0>         0.1082
     20 C13        -9.4364   -1.4779   -1.3098 C.3       1 <0>        -0.1022
     21 S1         -8.8162   -0.9116   -2.9224 S.3       1 <0>        -0.2490
     22 C14        -7.0152   -1.1035   -2.7635 C.3       1 <0>        -0.1051
     23 C15        -6.7119   -2.5372   -2.3304 C.3       1 <0>         0.1043
     24 Br1         3.9715    0.6642   -0.0121 Br        1 <0>         0.0669
     25 H1         -0.9068    2.0049    0.0512 H         1 <0>         0.1736
     26 H2          1.6602    2.8261    0.0314 H         1 <0>         0.1716
     27 H3         -5.2914   -0.7613    0.0477 H         1 <0>         0.1612
     28 H4         -4.8224   -5.0309    0.0174 H         1 <0>         0.1650
     29 H5         -2.6150   -5.8888   -0.0022 H         1 <0>         0.4243
     30 H6         -1.2594   -4.8963   -0.0043 H         1 <0>         0.4167
     31 H7         -9.2431   -3.5723   -1.7875 H         1 <0>         0.0905
     32 H8         -9.1971   -3.2089   -0.0456 H         1 <0>         0.1103
     33 H9        -10.5254   -1.5181   -1.3304 H         1 <0>         0.1216
     34 H10        -9.1078   -0.7910   -0.5299 H         1 <0>         0.0895
     35 H11        -6.5398   -0.9017   -3.7233 H         1 <0>         0.1215
     36 H12        -6.6383   -0.4091   -2.0126 H         1 <0>         0.0909
     37 H13        -5.6381   -2.6495   -2.1805 H         1 <0>         0.0972
     38 H14        -7.0445   -3.2268   -3.1063 H         1 <0>         0.0935
@<TRIPOS>BOND
     1    1    5 2
     2    1    2 1
     3    1   25 1
     4    2    3 2
     5    2   26 1
     6    3    4 1
     7    3   24 1
     8    4    5 1
     9    5    6 1
    10    6   14 2
    11    6    7 1
    12    7    8 2
    13    8   13 1
    14    8    9 1
    15    9   10 2
    16    9   27 1
    17   10   11 1
    18   10   16 1
    19   11   12 2
    20   11   28 1
    21   12   13 1
    22   12   15 1
    23   13   14 1
    24   15   29 1
    25   15   30 1
    26   16   17 2
    27   16   18 am
    28   18   23 1
    29   18   19 1
    30   19   20 1
    31   19   31 1
    32   19   32 1
    33   20   21 1
    34   20   33 1
    35   20   34 1
    36   21   22 1
    37   22   23 1
    38   22   35 1
    39   22   36 1
    40   23   37 1
    41   23   38 1
