@<TRIPOS>MOLECULE
CHEMBL183181
   42    45     0     0     0
SMALL
USER_CHARGES

@<TRIPOS>ATOM
      1 C1         -0.0187    1.5258    0.0104 C.3       1 <0>        -0.1444
      2 C2          0.0021   -0.0041    0.0020 C.3       1 <0>         0.2783
      3 C3          0.7140   -0.4917    1.1946 C.1       1 <0>        -0.0212
      4 C4          1.2818   -0.8806    2.1457 C.1       1 <0>        -0.1977
      5 C5          1.9744   -1.3550    3.3058 C.2       1 <0>         0.2093
      6 C6          2.4805   -0.4579    4.2000 C.2       1 <0>         0.1295
      7 N1          3.1402   -0.9025    5.3052 N.pl3     1 <0>        -0.2553
      8 C7          3.2880   -2.2471    5.5064 C.2       1 <0>         0.2088
      9 C8          2.7469   -3.1474    4.5539 C.cat     1 <0>         0.5684
     10 N2          2.1116   -2.6778    3.5005 N.pl3     1 <0>        -0.4962
     11 N3          2.8828   -4.5151    4.7329 N.pl3     1 <0>        -0.7513
     12 N4          3.9567   -2.4127    6.6360 N.2       1 <0>        -0.4383
     13 C9          4.2437   -1.2234    7.1676 C.2       1 <0>         0.3639
     14 N5          3.7629   -0.2684    6.3864 N.2       1 <0>        -0.2211
     15 C10         4.9818   -1.0060    8.4294 C.2       1 <0>         0.0032
     16 C11         5.2757    0.1999    8.9840 C.2       1 <0>        -0.1063
     17 C12         5.9843   -0.0623   10.1734 C.2       1 <0>        -0.2195
     18 C13         6.0869   -1.4013   10.2847 C.2       1 <0>         0.0220
     19 O1          5.4752   -1.9683    9.2325 O.3       1 <0>        -0.1533
     20 C14        -1.4117   -0.5257    0.0127 C.ar      1 <0>        -0.1295
     21 C15        -2.4143    0.2072    0.6199 C.ar      1 <0>        -0.1018
     22 C16        -3.7111   -0.2712    0.6297 C.ar      1 <0>        -0.1138
     23 C17        -4.0055   -1.4824    0.0320 C.ar      1 <0>        -0.1047
     24 C18        -3.0032   -2.2149   -0.5760 C.ar      1 <0>        -0.1142
     25 C19        -1.7071   -1.7344   -0.5896 C.ar      1 <0>        -0.1077
     26 O2          0.6709   -0.4649   -1.1737 O.3       1 <0>        -0.5249
     27 H1          1.0039    1.9031    0.0027 H         1 <0>         0.0789
     28 H2         -0.5459    1.8868   -0.8726 H         1 <0>         0.0912
     29 H3         -0.5289    1.8773    0.9072 H         1 <0>         0.0850
     30 H4          2.3588    0.6020    4.0318 H         1 <0>         0.2252
     31 H5          3.3489   -4.8585    5.5111 H         1 <0>         0.4574
     32 H6          2.5117   -5.1289    4.0798 H         1 <0>         0.4392
     33 H7          5.0165    1.1711    8.5892 H         1 <0>         0.1662
     34 H8          6.3722    0.6712   10.8647 H         1 <0>         0.1678
     35 H9          6.5759   -1.9306   11.0892 H         1 <0>         0.2225
     36 H10        -2.1843    1.1535    1.0869 H         1 <0>         0.1312
     37 H11        -4.4943    0.3010    1.1047 H         1 <0>         0.1310
     38 H12        -5.0186   -1.8566    0.0402 H         1 <0>         0.1298
     39 H13        -3.2331   -3.1613   -1.0427 H         1 <0>         0.1297
     40 H14        -0.9246   -2.3049   -1.0678 H         1 <0>         0.1223
     41 H15         0.7216   -1.4279   -1.2455 H         1 <0>         0.3831
     42 H16         1.7393   -3.2966    2.8528 H         1 <0>         0.4574
@<TRIPOS>BOND
     1    1    2 1
     2    1   27 1
     3    1   28 1
     4    1   29 1
     5    2    3 1
     6    2   20 1
     7    2   26 1
     8    3    4 3
     9    4    5 1
    10    5   10 1
    11    5    6 2
    12    6    7 1
    13    6   30 1
    14    7   14 1
    15    7    8 1
    16    8    9 1
    17    8   12 2
    18    9   10 2
    19    9   11 1
    20   10   42 1
    21   11   31 1
    22   11   32 1
    23   12   13 1
    24   13   14 2
    25   13   15 1
    26   15   19 1
    27   15   16 2
    28   16   17 1
    29   16   33 1
    30   17   18 2
    31   17   34 1
    32   18   19 1
    33   18   35 1
    34   20   25 ar
    35   20   21 ar
    36   21   22 ar
    37   21   36 1
    38   22   23 ar
    39   22   37 1
    40   23   24 ar
    41   23   38 1
    42   24   25 ar
    43   24   39 1
    44   25   40 1
    45   26   41 1
