@<TRIPOS>MOLECULE
CHEMBL193761
   41    44     0     0     0
SMALL
USER_CHARGES

@<TRIPOS>ATOM
      1 C1         -0.0167    1.3781    0.0096 C.ar      1 <0>        -0.1230
      2 C2          1.1709    2.0855    0.0021 C.ar      1 <0>        -0.1182
      3 C3          2.3773    1.4107   -0.0130 C.ar      1 <0>        -0.1170
      4 C4          2.3960    0.0285   -0.0201 C.ar      1 <0>        -0.0848
      5 C5          1.2084   -0.6789   -0.0117 C.ar      1 <0>        -0.1161
      6 C6          0.0021   -0.0041    0.0020 C.ar      1 <0>        -0.1180
      7 C7          3.7112   -0.7071   -0.0376 C.3       1 <0>        -0.0759
      8 C8          4.1714   -0.9633    1.3989 C.3       1 <0>        -0.1295
      9 C9          5.5066   -1.7102    1.3812 C.3       1 <0>         0.1127
     10 N1          5.9472   -1.9554    2.7567 N.pl3     1 <0>        -0.4779
     11 C10         6.7985   -1.1756    3.4829 C.2       1 <0>         0.2598
     12 N2          6.9713   -1.6887    4.6668 N.2       1 <0>        -0.4518
     13 C11         6.2454   -2.8258    4.7763 C.ar      1 <0>        -0.0885
     14 C12         5.5746   -3.0090    3.5534 C.ar      1 <0>         0.3298
     15 N3          4.7822   -4.0635    3.4014 N.ar      1 <0>        -0.5725
     16 C13         4.6190   -4.9339    4.3858 C.ar      1 <0>         0.5964
     17 N4          5.2266   -4.8033    5.5559 N.ar      1 <0>        -0.5489
     18 C14         6.0466   -3.7790    5.7952 C.ar      1 <0>         0.3623
     19 C15         6.7171   -3.6391    7.0992 C.2       1 <0>         0.0101
     20 C16         6.1989   -3.9962    8.3075 C.2       1 <0>        -0.1393
     21 C17         7.1747   -3.6888    9.2734 C.2       1 <0>        -0.2230
     22 C18         8.2302   -3.1648    8.6170 C.2       1 <0>        -0.0111
     23 O1          7.9525   -3.1410    7.3045 O.3       1 <0>        -0.1486
     24 N5          3.7826   -6.0201    4.1850 N.pl3     1 <0>        -0.8154
     25 H1         -0.9591    1.9053    0.0259 H         1 <0>         0.1217
     26 H2          1.1563    3.1654    0.0076 H         1 <0>         0.1224
     27 H3          3.3051    1.9634   -0.0196 H         1 <0>         0.1215
     28 H4          1.2231   -1.7588   -0.0176 H         1 <0>         0.1211
     29 H5         -0.9258   -0.5567    0.0082 H         1 <0>         0.1221
     30 H6          3.5884   -1.6586   -0.5549 H         1 <0>         0.0773
     31 H7          4.4573   -0.1052   -0.5563 H         1 <0>         0.0775
     32 H8          4.2941   -0.0118    1.9163 H         1 <0>         0.0725
     33 H9          3.4252   -1.5652    1.9176 H         1 <0>         0.0733
     34 H10         5.3838   -2.6617    0.8639 H         1 <0>         0.0961
     35 H11         6.2527   -1.1082    0.8625 H         1 <0>         0.1014
     36 H12         7.2610   -0.2664    3.1281 H         1 <0>         0.2251
     37 H13         5.2271   -4.4310    8.4889 H         1 <0>         0.1560
     38 H14         7.0937   -3.8431   10.3393 H         1 <0>         0.1554
     39 H15         9.1486   -2.8244    9.0723 H         1 <0>         0.2100
     40 H16         3.3289   -6.1324    3.3350 H         1 <0>         0.4165
     41 H17         3.6507   -6.6683    4.8945 H         1 <0>         0.4185
@<TRIPOS>BOND
     1    1    6 ar
     2    1    2 ar
     3    1   25 1
     4    2    3 ar
     5    2   26 1
     6    3    4 ar
     7    3   27 1
     8    4    5 ar
     9    4    7 1
    10    5    6 ar
    11    5   28 1
    12    6   29 1
    13    7    8 1
    14    7   30 1
    15    7   31 1
    16    8    9 1
    17    8   32 1
    18    8   33 1
    19    9   10 1
    20    9   34 1
    21    9   35 1
    22   10   14 1
    23   10   11 1
    24   11   12 2
    25   11   36 1
    26   12   13 1
    27   13   18 ar
    28   13   14 ar
    29   14   15 ar
    30   15   16 ar
    31   16   17 ar
    32   16   24 1
    33   17   18 ar
    34   18   19 1
    35   19   23 1
    36   19   20 2
    37   20   21 1
    38   20   37 1
    39   21   22 2
    40   21   38 1
    41   22   23 1
    42   22   39 1
    43   24   40 1
    44   24   41 1
