@<TRIPOS>MOLECULE
CHEMBL260718
   35    38     0     0     0
SMALL
USER_CHARGES

@<TRIPOS>ATOM
      1 C1         -0.0170    1.4020    0.0098 C.2       1 <0>        -0.1691
      2 C2          1.1374    2.0950    0.0024 C.2       1 <0>        -0.1108
      3 S1          2.3759    0.8095   -0.0163 S.3       1 <0>         0.1335
      4 C3          1.2886   -0.5906   -0.0135 C.ar      1 <0>        -0.2700
      5 C4          0.0021   -0.0041    0.0020 C.ar      1 <0>         0.2226
      6 N1         -1.0380   -0.8717    0.0069 N.ar      1 <0>        -0.5460
      7 C5         -0.8462   -2.1730   -0.0023 C.ar      1 <0>         0.6012
      8 N2          0.3544   -2.7346   -0.0164 N.ar      1 <0>        -0.5325
      9 C6          1.4500   -1.9677   -0.0228 C.ar      1 <0>         0.3575
     10 C7          2.7972   -2.5722   -0.0394 C.2       1 <0>         0.1162
     11 N3          3.9847   -1.9815   -0.0417 N.2       1 <0>        -0.4668
     12 C8          5.0928   -2.6798   -0.0568 C.2       1 <0>         0.0239
     13 C9          5.0367   -4.0406   -0.0705 C.2       1 <0>        -0.1914
     14 S2          3.2668   -4.2974   -0.0537 S.3       1 <0>         0.0932
     15 N4         -1.9584   -3.0009    0.0034 N.pl3     1 <0>        -0.5798
     16 C10        -1.9324   -4.4749    0.0013 C.3       1 <0>         0.1257
     17 C11        -3.2960   -4.8947   -0.6021 C.3       1 <0>        -0.1334
     18 C12        -4.2435   -3.8186   -0.0093 C.3       1 <0>        -0.1271
     19 C13        -3.3591   -2.5542    0.0192 C.3       1 <0>         0.1576
     20 H1         -3.5627   -1.9418   -0.8592 H         1 <0>         0.0881
     21 C14        -3.6349   -1.7514    1.2921 C.3       1 <0>         0.0605
     22 O1         -3.5021   -2.6041    2.4312 O.3       1 <0>        -0.5679
     23 H2         -0.9603    1.9276    0.0261 H         1 <0>         0.1491
     24 H3          1.2793    3.1656    0.0066 H         1 <0>         0.2021
     25 H4          6.0489   -2.1776   -0.0588 H         1 <0>         0.1766
     26 H5          5.8386   -4.7640   -0.0837 H         1 <0>         0.2056
     27 H6         -1.1143   -4.8390   -0.6203 H         1 <0>         0.0791
     28 H7         -1.8348   -4.8541    1.0185 H         1 <0>         0.0700
     29 H8         -3.2750   -4.8400   -1.6906 H         1 <0>         0.0754
     30 H9         -3.5804   -5.8925   -0.2681 H         1 <0>         0.0876
     31 H10        -5.1105   -3.6712   -0.6532 H         1 <0>         0.0823
     32 H11        -4.5531   -4.0911    0.9997 H         1 <0>         0.0910
     33 H12        -2.9204   -0.9316    1.3667 H         1 <0>         0.0652
     34 H13        -4.6472   -1.3489    1.2556 H         1 <0>         0.0534
     35 H14        -3.6635   -2.1608    3.2753 H         1 <0>         0.3776
@<TRIPOS>BOND
     1    1    5 1
     2    1    2 2
     3    1   23 1
     4    2    3 1
     5    2   24 1
     6    3    4 1
     7    4    9 ar
     8    4    5 ar
     9    5    6 ar
    10    6    7 ar
    11    7    8 ar
    12    7   15 1
    13    8    9 ar
    14    9   10 1
    15   10   14 1
    16   10   11 2
    17   11   12 1
    18   12   13 2
    19   12   25 1
    20   13   14 1
    21   13   26 1
    22   15   19 1
    23   15   16 1
    24   16   17 1
    25   16   27 1
    26   16   28 1
    27   17   18 1
    28   17   29 1
    29   17   30 1
    30   18   19 1
    31   18   31 1
    32   18   32 1
    33   19   20 1
    34   19   21 1
    35   21   22 1
    36   21   33 1
    37   21   34 1
    38   22   35 1
