@<TRIPOS>MOLECULE
CHEMBL409915
   36    39     0     0     0
SMALL
USER_CHARGES

@<TRIPOS>ATOM
      1 C1         -0.0162    1.3448    0.0094 C.2       1 <0>        -0.2232
      2 C2          1.3230    1.7760   -0.0010 C.2       1 <0>        -0.1329
      3 C3          2.0960    0.6543   -0.0144 C.2       1 <0>         0.0046
      4 O1          1.2786   -0.4173   -0.0124 O.3       1 <0>        -0.1487
      5 C4          0.0021   -0.0041    0.0020 C.2       1 <0>        -0.0068
      6 C5          3.5685    0.6188   -0.0287 C.ar      1 <0>         0.3709
      7 C6          4.2720   -0.3976    0.6491 C.ar      1 <0>        -0.0932
      8 C7          5.6764   -0.3801    0.5997 C.ar      1 <0>         0.3664
      9 N1          6.2890    0.5832   -0.0763 N.ar      1 <0>        -0.5473
     10 C8          5.5916    1.5208   -0.6997 C.ar      1 <0>         0.6030
     11 N2          4.2670    1.5442   -0.6877 N.ar      1 <0>        -0.5431
     12 N3          6.2711    2.5083   -1.3940 N.pl3     1 <0>        -0.8075
     13 N4          6.0948   -1.4687    1.3345 N.am      1 <0>        -0.4704
     14 C9          4.9708   -2.1014    1.7980 C.2       1 <0>         0.2529
     15 N5          3.9089   -1.4696    1.3933 N.2       1 <0>        -0.4172
     16 C10         7.3710   -1.8414    1.5559 C.2       1 <0>         0.7111
     17 O2          8.2839   -1.1914    1.0862 O.2       1 <0>        -0.5073
     18 N6          7.6345   -2.9349    2.2982 N.am      1 <0>        -0.7225
     19 C11         9.0217   -3.3400    2.5389 C.3       1 <0>         0.2236
     20 C12         9.0414   -4.5833    3.3903 C.2       1 <0>        -0.1877
     21 C13         9.0351   -5.8826    3.0041 C.2       1 <0>        -0.1210
     22 C14         9.0577   -6.8696    3.9715 C.2       1 <0>        -0.1663
     23 C15         9.0855   -6.5091    5.2779 C.2       1 <0>        -0.1559
     24 S1          9.0872   -4.7271    5.1692 S.3       1 <0>         0.0591
     25 H1         -0.8933    1.9747    0.0252 H         1 <0>         0.1566
     26 H2          1.6709    2.7985    0.0006 H         1 <0>         0.1575
     27 H3         -0.8669   -0.6453    0.0076 H         1 <0>         0.2113
     28 H4          7.2408    2.5049   -1.4175 H         1 <0>         0.4206
     29 H5          5.7772    3.2032   -1.8567 H         1 <0>         0.4207
     30 H6          4.9676   -2.9922    2.4085 H         1 <0>         0.2317
     31 H7          6.9057   -3.4538    2.6732 H         1 <0>         0.4052
     32 H8          9.5111   -3.5440    1.5865 H         1 <0>         0.0991
     33 H9          9.5501   -2.5381    3.0545 H         1 <0>         0.0916
     34 H10         9.0123   -6.1427    1.9561 H         1 <0>         0.1373
     35 H11         9.0528   -7.9124    3.6907 H         1 <0>         0.1384
     36 H12         9.1056   -7.1369    6.1564 H         1 <0>         0.1895
@<TRIPOS>BOND
     1    1    5 2
     2    1    2 1
     3    1   25 1
     4    2    3 2
     5    2   26 1
     6    3    4 1
     7    3    6 1
     8    4    5 1
     9    5   27 1
    10    6   11 ar
    11    6    7 ar
    12    7   15 1
    13    7    8 ar
    14    8    9 ar
    15    8   13 1
    16    9   10 ar
    17   10   11 ar
    18   10   12 1
    19   12   28 1
    20   12   29 1
    21   13   14 1
    22   13   16 am
    23   14   15 2
    24   14   30 1
    25   16   17 2
    26   16   18 am
    27   18   19 1
    28   18   31 1
    29   19   20 1
    30   19   32 1
    31   19   33 1
    32   20   24 1
    33   20   21 2
    34   21   22 1
    35   21   34 1
    36   22   23 2
    37   22   35 1
    38   23   24 1
    39   23   36 1
