@<TRIPOS>MOLECULE
CHEMBL272637
   64    67     0     0     0
SMALL
USER_CHARGES

@<TRIPOS>ATOM
      1 C1          7.4644   -1.6191    0.0158 C.3       1 <0>        -0.0813
      2 C2          6.4586   -2.7410   -0.0116 C.2       1 <0>         0.0268
      3 C3          6.7496   -4.0578   -0.0098 C.2       1 <0>        -0.2270
      4 C4          5.5251   -4.7512   -0.0407 C.2       1 <0>        -0.1101
      5 C5          4.5424   -3.8101   -0.0600 C.2       1 <0>         0.0072
      6 O1          5.1252   -2.5953   -0.0361 O.3       1 <0>        -0.1509
      7 C6          3.0911   -4.0739   -0.0946 C.ar      1 <0>         0.4629
      8 N1          2.6613   -5.3309   -0.1038 N.ar      1 <0>        -0.5060
      9 C7          1.3619   -5.6041   -0.1347 C.ar      1 <0>         0.4353
     10 C8          0.4476   -4.5527   -0.1576 C.ar      1 <0>        -0.2617
     11 C9          0.9343   -3.2497   -0.1471 C.ar      1 <0>         0.4561
     12 N2          2.2468   -3.0490   -0.1104 N.ar      1 <0>        -0.5434
     13 N3          0.0540   -2.1662   -0.1693 N.pl3     1 <0>        -0.3356
     14 C10         0.3118   -0.9153    0.2949 C.2       1 <0>         0.1168
     15 C11        -0.7950   -0.1660    0.0882 C.2       1 <0>        -0.2585
     16 C12        -1.7593   -0.9786   -0.5197 C.2       1 <0>         0.1055
     17 N4         -1.2507   -2.1729   -0.6796 N.2       1 <0>        -0.2873
     18 C13        -3.1452   -0.5487   -0.9265 C.3       1 <0>        -0.0773
     19 C14         1.5979   -0.4479    0.9263 C.3       1 <0>        -0.0892
     20 N5          0.9194   -6.9228   -0.1446 N.am      1 <0>        -0.6542
     21 C15         1.8089   -7.9315   -0.2329 C.2       1 <0>         0.5035
     22 O2          2.9980   -7.6945   -0.2153 O.2       1 <0>        -0.4402
     23 C16         1.3257   -9.3538   -0.3536 C.3       1 <0>         0.0319
     24 N6          2.4805  -10.2582   -0.4336 N.3       1 <0>        -0.5068
     25 C17         3.1977  -10.0896   -1.7154 C.3       1 <0>         0.0458
     26 C18         3.7276  -11.5035   -2.0612 C.3       1 <0>        -0.1444
     27 C19         2.5623  -12.4032   -1.5719 C.3       1 <0>        -0.1434
     28 H1          1.7768  -12.4602   -2.3254 H         1 <0>         0.1016
     29 C20         2.0587  -11.6658   -0.3133 C.3       1 <0>         0.0542
     30 C21         3.0710  -13.8018   -1.2167 C.3       1 <0>         0.0010
     31 N7          3.5869  -14.4569   -2.4261 N.4       1 <0>        -0.3882
     32 C22         4.2041  -15.7395   -2.0629 C.3       1 <0>        -0.0479
     33 C23         2.4815  -14.6937   -3.3642 C.3       1 <0>        -0.0520
     34 H2          6.9419   -0.6625    0.0123 H         1 <0>         0.0807
     35 H3          8.0721   -1.6979    0.9173 H         1 <0>         0.0927
     36 H4          8.1068   -1.6854   -0.8623 H         1 <0>         0.0921
     37 H5          7.7359   -4.4974    0.0111 H         1 <0>         0.1570
     38 H6          5.3914   -5.8228   -0.0481 H         1 <0>         0.1643
     39 H7         -0.6148   -4.7451   -0.1833 H         1 <0>         0.1613
     40 H8         -0.9140    0.8758    0.3469 H         1 <0>         0.1610
     41 H9         -3.1239   -0.1746   -1.9500 H         1 <0>         0.0845
     42 H10        -3.8226   -1.4004   -0.8650 H         1 <0>         0.0772
     43 H11        -3.4917    0.2400   -0.2586 H         1 <0>         0.0856
     44 H12         2.2640   -0.0651    0.1531 H         1 <0>         0.0891
     45 H13         1.3833    0.3429    1.6451 H         1 <0>         0.0850
     46 H14         2.0764   -1.2833    1.4373 H         1 <0>         0.0778
     47 H15        -0.0294   -7.1164   -0.0879 H         1 <0>         0.4242
     48 H16         0.7244   -9.6086    0.5191 H         1 <0>         0.1147
     49 H17         0.7205   -9.4567   -1.2543 H         1 <0>         0.0747
     50 H18         2.5143   -9.7406   -2.4896 H         1 <0>         0.0521
     51 H19         4.0269   -9.3919   -1.5974 H         1 <0>         0.1055
     52 H20         3.8800  -11.6116   -3.1351 H         1 <0>         0.0820
     53 H21         4.6451  -11.7211   -1.5144 H         1 <0>         0.0906
     54 H22         2.5003  -12.1104    0.5786 H         1 <0>         0.0934
     55 H23         0.9715  -11.7238   -0.2597 H         1 <0>         0.0727
     56 H24         3.8690  -13.7216   -0.4785 H         1 <0>         0.1359
     57 H25         2.2528  -14.3923   -0.8046 H         1 <0>         0.1331
     58 H26         3.4409  -16.4119   -1.6711 H         1 <0>         0.1230
     59 H27         4.6624  -16.1852   -2.9457 H         1 <0>         0.1251
     60 H28         4.9669  -15.5732   -1.3022 H         1 <0>         0.1245
     61 H29         2.0236  -13.7419   -3.6337 H         1 <0>         0.1218
     62 H30         2.8643  -15.1798   -4.2616 H         1 <0>         0.1253
     63 H31         1.7364  -15.3349   -2.8933 H         1 <0>         0.1236
     64 H32         4.2766  -13.8633   -2.8620 H         1 <0>         0.4262
@<TRIPOS>BOND
     1    1    2 1
     2    1   34 1
     3    1   35 1
     4    1   36 1
     5    2    6 1
     6    2    3 2
     7    3    4 1
     8    3   37 1
     9    4    5 2
    10    4   38 1
    11    5    6 1
    12    5    7 1
    13    7   12 ar
    14    7    8 ar
    15    8    9 ar
    16    9   10 ar
    17    9   20 1
    18   10   11 ar
    19   10   39 1
    20   11   12 ar
    21   11   13 1
    22   13   17 1
    23   13   14 1
    24   14   15 2
    25   14   19 1
    26   15   16 1
    27   15   40 1
    28   16   17 2
    29   16   18 1
    30   18   41 1
    31   18   42 1
    32   18   43 1
    33   19   44 1
    34   19   45 1
    35   19   46 1
    36   20   21 am
    37   20   47 1
    38   21   22 2
    39   21   23 1
    40   23   24 1
    41   23   48 1
    42   23   49 1
    43   24   29 1
    44   24   25 1
    45   25   26 1
    46   25   50 1
    47   25   51 1
    48   26   27 1
    49   26   52 1
    50   26   53 1
    51   27   28 1
    52   27   29 1
    53   27   30 1
    54   29   54 1
    55   29   55 1
    56   30   31 1
    57   30   56 1
    58   30   57 1
    59   31   32 1
    60   31   33 1
    61   31   64 1
    62   32   58 1
    63   32   59 1
    64   32   60 1
    65   33   61 1
    66   33   62 1
    67   33   63 1
