@<TRIPOS>MOLECULE
CHEMBL447192
   31    33     0     0     0
SMALL
USER_CHARGES

@<TRIPOS>ATOM
      1 C1         -0.0167    1.3792    0.0096 C.ar      1 <0>        -0.0989
      2 C2          1.1686    2.0924    0.0021 C.ar      1 <0>        -0.1287
      3 C3          2.3774    1.4269   -0.0134 C.ar      1 <0>        -0.0692
      4 C4          2.4026    0.0330   -0.0211 C.ar      1 <0>        -0.0660
      5 C5          1.2048   -0.6804   -0.0130 C.ar      1 <0>        -0.0893
      6 C6          0.0021   -0.0041    0.0020 C.ar      1 <0>        -0.1254
      7 C7          3.6980   -0.6877   -0.0382 C.ar      1 <0>         0.2621
      8 C8          3.7057   -2.0777   -0.0514 C.ar      1 <0>        -0.2041
      9 C9          4.9287   -2.7533   -0.0676 C.ar      1 <0>         0.1270
     10 C10         6.1163   -1.9840   -0.0698 C.ar      1 <0>        -0.1430
     11 C11         6.0147   -0.5824   -0.0558 C.ar      1 <0>         0.4678
     12 N1          4.8312    0.0066   -0.0462 N.ar      1 <0>        -0.5331
     13 N2          7.1643    0.1885   -0.0577 N.pl3     1 <0>        -0.8335
     14 C12         7.3983   -2.6219   -0.0856 C.1       1 <0>         0.2554
     15 N3          8.4152   -3.1280   -0.0982 N.1       1 <0>        -0.4055
     16 C13         4.9802   -4.2261   -0.0814 C.2       1 <0>        -0.0059
     17 C14         5.7138   -4.9926   -0.9356 C.2       1 <0>        -0.1620
     18 C15         5.4644   -6.3342   -0.5917 C.2       1 <0>        -0.2133
     19 C16         4.6005   -6.3232    0.4441 C.2       1 <0>        -0.0186
     20 O1          4.3144   -5.0489    0.7525 O.3       1 <0>        -0.1595
     21 H1         -0.9603    1.9042    0.0260 H         1 <0>         0.1259
     22 H2          1.1479    3.1722    0.0081 H         1 <0>         0.1277
     23 H3          3.3021    1.9848   -0.0199 H         1 <0>         0.1370
     24 H4          1.2183   -1.7603   -0.0192 H         1 <0>         0.1303
     25 H5         -0.9264   -0.5557    0.0079 H         1 <0>         0.1289
     26 H6          2.7771   -2.6291   -0.0488 H         1 <0>         0.1510
     27 H7          8.0349   -0.2390   -0.0687 H         1 <0>         0.4121
     28 H8          7.0993    1.1563   -0.0481 H         1 <0>         0.4144
     29 H9          6.3615   -4.6391   -1.7242 H         1 <0>         0.1497
     30 H10         5.8851   -7.2077   -1.0675 H         1 <0>         0.1555
     31 H11         4.2072   -7.1955    0.9449 H         1 <0>         0.2113
@<TRIPOS>BOND
     1    1    6 ar
     2    1    2 ar
     3    1   21 1
     4    2    3 ar
     5    2   22 1
     6    3    4 ar
     7    3   23 1
     8    4    5 ar
     9    4    7 1
    10    5    6 ar
    11    5   24 1
    12    6   25 1
    13    7   12 ar
    14    7    8 ar
    15    8    9 ar
    16    8   26 1
    17    9   10 ar
    18    9   16 1
    19   10   11 ar
    20   10   14 1
    21   11   12 ar
    22   11   13 1
    23   13   27 1
    24   13   28 1
    25   14   15 3
    26   16   20 1
    27   16   17 2
    28   17   18 1
    29   17   29 1
    30   18   19 2
    31   18   30 1
    32   19   20 1
    33   19   31 1
