@<TRIPOS>MOLECULE
CHEMBL195364
   41    45     0     0     0
SMALL
USER_CHARGES

@<TRIPOS>ATOM
      1 C1         -0.0164    1.3567    0.0095 C.ar      1 <0>        -0.1106
      2 C2          1.1686    2.0905    0.0021 C.ar      1 <0>        -0.1164
      3 C3          2.3785    1.4675   -0.0131 C.ar      1 <0>        -0.1030
      4 C4          2.4375    0.0634   -0.0211 C.ar      1 <0>        -0.0566
      5 C5          3.6681   -0.6153   -0.0364 C.ar      1 <0>        -0.0797
      6 C6          3.6865   -1.9761   -0.0434 C.ar      1 <0>        -0.1156
      7 C7          2.5015   -2.7098   -0.0357 C.ar      1 <0>        -0.0925
      8 C8          1.2917   -2.0868   -0.0209 C.ar      1 <0>        -0.1063
      9 C9          1.2327   -0.6827   -0.0133 C.ar      1 <0>        -0.0436
     10 C10         0.0021   -0.0041    0.0020 C.ar      1 <0>        -0.1094
     11 C11         5.0079   -2.7004   -0.0602 C.3       1 <0>         0.1546
     12 N1          5.4499   -2.9421    1.3155 N.pl3     1 <0>        -0.4743
     13 C12         6.2940   -2.1550    2.0422 C.2       1 <0>         0.2606
     14 N2          6.4706   -2.6668    3.2262 N.2       1 <0>        -0.4507
     15 C13         5.7544   -3.8100    3.3351 C.ar      1 <0>        -0.0880
     16 C14         5.0859   -3.9989    2.1119 C.ar      1 <0>         0.3335
     17 N3          4.3026   -5.0601    1.9594 N.ar      1 <0>        -0.5711
     18 C15         4.1464   -5.9320    2.9435 C.ar      1 <0>         0.5965
     19 N4          4.7522   -5.7964    4.1140 N.ar      1 <0>        -0.5492
     20 C16         5.5633   -4.7650    4.3538 C.ar      1 <0>         0.3620
     21 C17         6.2319   -4.6195    5.6583 C.2       1 <0>         0.0106
     22 C18         5.7161   -4.9812    6.8662 C.2       1 <0>        -0.1397
     23 C19         6.6887   -4.6656    7.8327 C.2       1 <0>        -0.2230
     24 C20         7.7401   -4.1324    7.1769 C.2       1 <0>        -0.0114
     25 O1          7.4628   -4.1108    5.8643 O.3       1 <0>        -0.1485
     26 N5          3.3195   -7.0254    2.7422 N.pl3     1 <0>        -0.8157
     27 H1         -0.9633    1.8757    0.0259 H         1 <0>         0.1250
     28 H2          1.1260    3.1696    0.0083 H         1 <0>         0.1252
     29 H3          3.2884    2.0491   -0.0194 H         1 <0>         0.1286
     30 H4          4.5943   -0.0599   -0.0428 H         1 <0>         0.1296
     31 H5          2.5441   -3.7890   -0.0419 H         1 <0>         0.1285
     32 H6          0.3816   -2.6684   -0.0154 H         1 <0>         0.1289
     33 H7         -0.9241   -0.5595    0.0082 H         1 <0>         0.1281
     34 H8          4.8935   -3.6529   -0.5777 H         1 <0>         0.1048
     35 H9          5.7491   -2.0921   -0.5784 H         1 <0>         0.1096
     36 H10         6.7489   -1.2419    1.6877 H         1 <0>         0.2238
     37 H11         4.7479   -5.4244    7.0470 H         1 <0>         0.1558
     38 H12         6.6085   -4.8206    8.8985 H         1 <0>         0.1553
     39 H13         8.6552   -3.7842    7.6327 H         1 <0>         0.2099
     40 H14         2.8672   -7.1414    1.8920 H         1 <0>         0.4162
     41 H15         3.1928   -7.6747    3.4516 H         1 <0>         0.4184
@<TRIPOS>BOND
     1    1   10 ar
     2    1    2 ar
     3    1   27 1
     4    2    3 ar
     5    2   28 1
     6    3    4 ar
     7    3   29 1
     8    4    9 ar
     9    4    5 ar
    10    5    6 ar
    11    5   30 1
    12    6    7 ar
    13    6   11 1
    14    7    8 ar
    15    7   31 1
    16    8    9 ar
    17    8   32 1
    18    9   10 ar
    19   10   33 1
    20   11   12 1
    21   11   34 1
    22   11   35 1
    23   12   16 1
    24   12   13 1
    25   13   14 2
    26   13   36 1
    27   14   15 1
    28   15   20 ar
    29   15   16 ar
    30   16   17 ar
    31   17   18 ar
    32   18   19 ar
    33   18   26 1
    34   19   20 ar
    35   20   21 1
    36   21   25 1
    37   21   22 2
    38   22   23 1
    39   22   37 1
    40   23   24 2
    41   23   38 1
    42   24   25 1
    43   24   39 1
    44   26   40 1
    45   26   41 1
