@<TRIPOS>MOLECULE
CHEMBL1222145
   38    40     0     0     0
SMALL
USER_CHARGES

@<TRIPOS>ATOM
      1 C1          0.0044    1.4814    0.4806 C.3       1 <0>        -0.1533
      2 C2          0.0119   -0.0230    0.2019 C.3       1 <0>         0.0634
      3 O1         -1.3279   -0.5192    0.2295 O.3       1 <0>        -0.3516
      4 C3         -1.4975   -1.8387    0.0007 C.2       1 <0>         0.5610
      5 O2         -0.5324   -2.5477   -0.2162 O.2       1 <0>        -0.4866
      6 C4         -2.7978   -2.3977    0.0132 C.2       1 <0>        -0.3345
      7 C5         -3.1967   -3.7376   -0.0757 C.2       1 <0>         0.2471
      8 N1         -4.4952   -3.9544   -0.0362 N.2       1 <0>        -0.5505
      9 C6         -5.3560   -2.9630    0.0801 C.2       1 <0>         0.2614
     10 S1         -4.3847   -1.5913    0.1545 S.3       1 <0>         0.3281
     11 N2         -6.7353   -3.0342    0.1343 N.am      1 <0>        -0.5996
     12 C7         -7.4640   -1.9069    0.2557 C.2       1 <0>         0.6117
     13 O3         -6.9076   -0.8264    0.3176 O.2       1 <0>        -0.4741
     14 C8         -8.9267   -1.9824    0.3132 C.2       1 <0>        -0.0958
     15 C9         -9.7812   -0.9231    0.4292 C.2       1 <0>        -0.0886
     16 C10       -11.0807   -1.4529    0.4457 C.2       1 <0>        -0.2264
     17 C11       -10.9644   -2.7953    0.3405 C.2       1 <0>         0.0180
     18 O4         -9.6653   -3.1100    0.2550 O.3       1 <0>        -0.1643
     19 C12        -2.2187   -4.8422   -0.2066 C.ar      1 <0>        -0.0439
     20 C13        -1.0837   -4.8722    0.6036 C.ar      1 <0>        -0.0489
     21 C14        -0.1765   -5.9041    0.4773 C.ar      1 <0>        -0.1261
     22 C15        -0.3908   -6.9076   -0.4506 C.ar      1 <0>        -0.1002
     23 C16        -1.5144   -6.8832   -1.2574 C.ar      1 <0>        -0.1314
     24 C17        -2.4318   -5.8597   -1.1365 C.ar      1 <0>        -0.0762
     25 H1          1.0264    1.8599    0.4595 H         1 <0>         0.0812
     26 H2         -0.5868    1.9891   -0.2815 H         1 <0>         0.0673
     27 H3         -0.4316    1.6669    1.4622 H         1 <0>         0.0673
     28 H4          0.4480   -0.2085   -0.7797 H         1 <0>         0.0699
     29 H5          0.6032   -0.5308    0.9639 H         1 <0>         0.0698
     30 H6         -7.1788   -3.8954    0.0850 H         1 <0>         0.4340
     31 H7         -9.5095    0.1201    0.4956 H         1 <0>         0.1681
     32 H8        -12.0007   -0.8932    0.5277 H         1 <0>         0.1645
     33 H9        -11.7842   -3.4981    0.3238 H         1 <0>         0.2179
     34 H10        -0.9151   -4.0891    1.3280 H         1 <0>         0.1212
     35 H11         0.7029   -5.9282    1.1038 H         1 <0>         0.1260
     36 H12         0.3222   -7.7132   -0.5458 H         1 <0>         0.1242
     37 H13        -1.6759   -7.6691   -1.9804 H         1 <0>         0.1258
     38 H14        -3.3111   -5.8442   -1.7635 H         1 <0>         0.1241
@<TRIPOS>BOND
     1    1    2 1
     2    1   25 1
     3    1   26 1
     4    1   27 1
     5    2    3 1
     6    2   28 1
     7    2   29 1
     8    3    4 1
     9    4    5 2
    10    4    6 1
    11    6   10 1
    12    6    7 2
    13    7    8 1
    14    7   19 1
    15    8    9 2
    16    9   10 1
    17    9   11 1
    18   11   12 am
    19   11   30 1
    20   12   13 2
    21   12   14 1
    22   14   18 1
    23   14   15 2
    24   15   16 1
    25   15   31 1
    26   16   17 2
    27   16   32 1
    28   17   18 1
    29   17   33 1
    30   19   24 ar
    31   19   20 ar
    32   20   21 ar
    33   20   34 1
    34   21   22 ar
    35   21   35 1
    36   22   23 ar
    37   22   36 1
    38   23   24 ar
    39   23   37 1
    40   24   38 1
