@<TRIPOS>MOLECULE
CHEMBL610426
   51    54     0     0     0
SMALL
USER_CHARGES

@<TRIPOS>ATOM
      1 C1         -0.0187    1.5258    0.0104 C.3       1 <0>        -0.1678
      2 C2          0.0021   -0.0041    0.0020 C.3       1 <0>         0.1135
      3 N1          0.6878   -0.4765   -1.2033 N.am      1 <0>        -0.7272
      4 C3          0.8268   -1.7986   -1.4250 C.2       1 <0>         0.5158
      5 O1          0.3843   -2.5972   -0.6267 O.2       1 <0>        -0.5034
      6 C4          1.5322   -2.2846   -2.6649 C.3       1 <0>         0.0319
      7 H1          2.5323   -1.8560   -2.7290 H         1 <0>         0.1222
      8 C5          0.7085   -1.9402   -3.9319 C.3       1 <0>         0.0507
      9 H2         -0.3595   -2.0480   -3.7427 H         1 <0>         0.0947
     10 C6          1.2015   -3.0074   -4.9392 C.3       1 <0>         0.0832
     11 H3          0.3680   -3.3897   -5.5285 H         1 <0>         0.0898
     12 C7          1.7901   -4.1212   -4.0517 C.3       1 <0>         0.3144
     13 O2          1.5952   -3.7270   -2.6817 O.3       1 <0>        -0.3271
     14 N2          1.0956   -5.3847   -4.3118 N.pl3     1 <0>        -0.4752
     15 C8          0.0372   -5.8823   -3.6115 C.2       1 <0>         0.2663
     16 N3         -0.3305   -7.0252   -4.1139 N.2       1 <0>        -0.4587
     17 C9          0.4663   -7.3327   -5.1655 C.ar      1 <0>        -0.1041
     18 C10         1.3875   -6.2812   -5.3085 C.ar      1 <0>         0.3101
     19 N4          2.2875   -6.3393   -6.2844 N.ar      1 <0>        -0.5538
     20 C11         2.3172   -7.3645   -7.1097 C.ar      1 <0>         0.3660
     21 N5          1.4707   -8.3737   -7.0169 N.ar      1 <0>        -0.5871
     22 C12         0.5413   -8.4076   -6.0673 C.ar      1 <0>         0.5073
     23 N6         -0.3422   -9.4691   -5.9788 N.pl3     1 <0>        -0.6905
     24 C13        -0.2486  -10.5811   -6.9281 C.3       1 <0>         0.1705
     25 C14        -1.3163  -11.5982   -6.6171 C.ar      1 <0>        -0.1076
     26 C15        -1.0534  -12.6277   -5.7324 C.ar      1 <0>        -0.0822
     27 C16        -2.0323  -13.5609   -5.4468 C.ar      1 <0>        -0.1140
     28 C17        -3.2745  -13.4652   -6.0457 C.ar      1 <0>        -0.0809
     29 C18        -3.5380  -12.4352   -6.9303 C.ar      1 <0>        -0.0933
     30 C19        -2.5597  -11.4984   -7.2119 C.ar      1 <0>        -0.0697
     31 Br1        -5.2370  -12.3042   -7.7503 Br        1 <0>        -0.0456
     32 O3          2.2079   -2.4612   -5.7941 O.3       1 <0>        -0.5315
     33 O4          1.0116   -0.6227   -4.3947 O.3       1 <0>        -0.5362
     34 H4          1.0039    1.9031    0.0027 H         1 <0>         0.0645
     35 H5         -0.5459    1.8868   -0.8726 H         1 <0>         0.0637
     36 H6         -0.5289    1.8773    0.9072 H         1 <0>         0.0792
     37 H7          0.5293   -0.3651    0.8851 H         1 <0>         0.0731
     38 H8         -1.0205   -0.3814    0.0098 H         1 <0>         0.0727
     39 H9          1.0417    0.1622   -1.8418 H         1 <0>         0.3979
     40 H10         2.8552   -4.2328   -4.2545 H         1 <0>         0.1318
     41 H11        -0.4275   -5.3996   -2.7645 H         1 <0>         0.2243
     42 H12         3.0615   -7.3807   -7.8920 H         1 <0>         0.2061
     43 H13        -1.0233   -9.4769   -5.2883 H         1 <0>         0.4196
     44 H14        -0.3884  -10.2060   -7.9419 H         1 <0>         0.0830
     45 H15         0.7329  -11.0478   -6.8454 H         1 <0>         0.0842
     46 H16        -0.0829  -12.7030   -5.2647 H         1 <0>         0.1325
     47 H17        -1.8264  -14.3651   -4.7560 H         1 <0>         0.1359
     48 H18        -4.0391  -14.1948   -5.8230 H         1 <0>         0.1353
     49 H19        -2.7663  -10.6918   -7.8997 H         1 <0>         0.1349
     50 H20         1.9048   -1.7181   -6.3335 H         1 <0>         0.3969
     51 H21         0.8031    0.0753   -3.7587 H         1 <0>         0.3843
@<TRIPOS>BOND
     1    1    2 1
     2    1   34 1
     3    1   35 1
     4    1   36 1
     5    2    3 1
     6    2   37 1
     7    2   38 1
     8    3    4 am
     9    3   39 1
    10    4    5 2
    11    4    6 1
    12    6    7 1
    13    6   13 1
    14    6    8 1
    15    8    9 1
    16    8   10 1
    17    8   33 1
    18   10   11 1
    19   10   12 1
    20   10   32 1
    21   12   13 1
    22   12   14 1
    23   12   40 1
    24   14   18 1
    25   14   15 1
    26   15   16 2
    27   15   41 1
    28   16   17 1
    29   17   22 ar
    30   17   18 ar
    31   18   19 ar
    32   19   20 ar
    33   20   21 ar
    34   20   42 1
    35   21   22 ar
    36   22   23 1
    37   23   24 1
    38   23   43 1
    39   24   25 1
    40   24   44 1
    41   24   45 1
    42   25   30 ar
    43   25   26 ar
    44   26   27 ar
    45   26   46 1
    46   27   28 ar
    47   27   47 1
    48   28   29 ar
    49   28   48 1
    50   29   30 ar
    51   29   31 1
    52   30   49 1
    53   32   50 1
    54   33   51 1
