@<TRIPOS>MOLECULE
CHEMBL256125
   67    71     0     0     0
SMALL
USER_CHARGES

@<TRIPOS>ATOM
      1 C1          8.3276   -1.9632   -0.0229 C.3       1 <0>        -0.0788
      2 C2          7.2456   -3.0122   -0.0325 C.2       1 <0>         0.0218
      3 C3          7.4442   -4.3460   -0.0478 C.2       1 <0>        -0.2241
      4 C4          6.1740   -4.9523   -0.0521 C.2       1 <0>        -0.1083
      5 C5          5.2590   -3.9452   -0.0390 C.2       1 <0>         0.0067
      6 O1          5.9255   -2.7740   -0.0213 O.3       1 <0>        -0.1517
      7 C6          3.7924   -4.1072   -0.0379 C.ar      1 <0>         0.4643
      8 N1          3.2761   -5.3312   -0.0451 N.ar      1 <0>        -0.5053
      9 C7          1.9604   -5.5132   -0.0444 C.ar      1 <0>         0.4398
     10 C8          1.1213   -4.4006   -0.0358 C.ar      1 <0>        -0.2599
     11 C9          1.6977   -3.1348   -0.0284 C.ar      1 <0>         0.4529
     12 N2          3.0215   -3.0261   -0.0242 N.ar      1 <0>        -0.5445
     13 N3          0.8947   -1.9926   -0.0198 N.pl3     1 <0>        -0.3331
     14 C10         1.2507   -0.7669    0.4467 C.2       1 <0>         0.1172
     15 C11         0.1939    0.0593    0.2742 C.2       1 <0>        -0.2609
     16 C12        -0.8398   -0.6788   -0.3144 C.2       1 <0>         0.1020
     17 N4         -0.4198   -1.9040   -0.4962 N.2       1 <0>        -0.2848
     18 C13        -2.2022   -0.1499   -0.6819 C.3       1 <0>        -0.0761
     19 C14         2.5818   -0.3957    1.0479 C.3       1 <0>        -0.0890
     20 N5          1.4270   -6.7978   -0.0524 N.am      1 <0>        -0.6501
     21 C15         2.2422   -7.8653   -0.1639 C.2       1 <0>         0.5065
     22 O2          3.4451   -7.7122   -0.1643 O.2       1 <0>        -0.4319
     23 C16         1.6587   -9.2492   -0.2879 C.3       1 <0>         0.0461
     24 O3          2.7164  -10.2045   -0.3918 O.3       1 <0>        -0.2882
     25 C17         2.3590  -11.5102   -0.5112 C.ar      1 <0>         0.1277
     26 C18         1.0175  -11.8642   -0.5339 C.ar      1 <0>        -0.2088
     27 C19         0.6568  -13.1919   -0.6559 C.ar      1 <0>        -0.0780
     28 C20         1.6313  -14.1681   -0.7553 C.ar      1 <0>        -0.1493
     29 C21         2.9685  -13.8180   -0.7325 C.ar      1 <0>        -0.0390
     30 C22         3.3345  -12.4908   -0.6164 C.ar      1 <0>        -0.1222
     31 C23         4.0279  -14.8844   -0.8406 C.3       1 <0>         0.0926
     32 N6          4.3617  -15.1014   -2.2546 N.3       1 <0>        -0.5315
     33 C24         3.2212  -15.6756   -2.9831 C.3       1 <0>         0.0133
     34 C25         3.5915  -15.8293   -4.4607 C.3       1 <0>         0.0630
     35 O4          4.7665  -16.6371   -4.5710 O.3       1 <0>        -0.3854
     36 C26         5.8970  -16.1070   -3.8737 C.3       1 <0>         0.0630
     37 C27         5.5501  -15.9561   -2.3902 C.3       1 <0>         0.0171
     38 H1          7.8730   -0.9726   -0.0058 H         1 <0>         0.0792
     39 H2          8.9509   -2.0922    0.8620 H         1 <0>         0.0913
     40 H3          8.9413   -2.0660   -0.9178 H         1 <0>         0.0912
     41 H4          8.3977   -4.8532   -0.0557 H         1 <0>         0.1575
     42 H5          5.9658   -6.0120   -0.0639 H         1 <0>         0.1667
     43 H6          0.0478   -4.5186   -0.0354 H         1 <0>         0.1626
     44 H7          0.1544    1.1044    0.5435 H         1 <0>         0.1595
     45 H8         -2.1808    0.2311   -1.7029 H         1 <0>         0.0835
     46 H9         -2.9355   -0.9532   -0.6092 H         1 <0>         0.0771
     47 H10        -2.4759    0.6547    0.0005 H         1 <0>         0.0841
     48 H11         3.2532   -0.0531    0.2605 H         1 <0>         0.0888
     49 H12         2.4411    0.4015    1.7778 H         1 <0>         0.0835
     50 H13         3.0138   -1.2670    1.5402 H         1 <0>         0.0786
     51 H14         0.4683   -6.9254    0.0222 H         1 <0>         0.4263
     52 H15         1.0554   -9.4695    0.5927 H         1 <0>         0.0996
     53 H16         1.0333   -9.3013   -1.1791 H         1 <0>         0.1002
     54 H17         0.2561  -11.1023   -0.4559 H         1 <0>         0.1275
     55 H18        -0.3871  -13.4680   -0.6733 H         1 <0>         0.1272
     56 H19         1.3473  -15.2057   -0.8506 H         1 <0>         0.1221
     57 H20         4.3792  -12.2173   -0.6031 H         1 <0>         0.1340
     58 H21         4.9201  -14.5662   -0.3013 H         1 <0>         0.0891
     59 H22         3.6542  -15.8128   -0.4089 H         1 <0>         0.0495
     60 H23         2.9771  -16.6524   -2.5655 H         1 <0>         0.0436
     61 H24         2.3599  -15.0140   -2.8906 H         1 <0>         0.0912
     62 H25         2.7698  -16.3073   -4.9940 H         1 <0>         0.0984
     63 H26         3.7834  -14.8468   -4.8919 H         1 <0>         0.0601
     64 H27         6.7428  -16.7859   -3.9825 H         1 <0>         0.0997
     65 H28         6.1560  -15.1326   -4.2878 H         1 <0>         0.0610
     66 H29         6.3889  -15.4993   -1.8649 H         1 <0>         0.0887
     67 H30         5.3433  -16.9374   -1.9631 H         1 <0>         0.0449
@<TRIPOS>BOND
     1    1    2 1
     2    1   38 1
     3    1   39 1
     4    1   40 1
     5    2    6 1
     6    2    3 2
     7    3    4 1
     8    3   41 1
     9    4    5 2
    10    4   42 1
    11    5    6 1
    12    5    7 1
    13    7   12 ar
    14    7    8 ar
    15    8    9 ar
    16    9   10 ar
    17    9   20 1
    18   10   11 ar
    19   10   43 1
    20   11   12 ar
    21   11   13 1
    22   13   17 1
    23   13   14 1
    24   14   15 2
    25   14   19 1
    26   15   16 1
    27   15   44 1
    28   16   17 2
    29   16   18 1
    30   18   45 1
    31   18   46 1
    32   18   47 1
    33   19   48 1
    34   19   49 1
    35   19   50 1
    36   20   21 am
    37   20   51 1
    38   21   22 2
    39   21   23 1
    40   23   24 1
    41   23   52 1
    42   23   53 1
    43   24   25 1
    44   25   30 ar
    45   25   26 ar
    46   26   27 ar
    47   26   54 1
    48   27   28 ar
    49   27   55 1
    50   28   29 ar
    51   28   56 1
    52   29   30 ar
    53   29   31 1
    54   30   57 1
    55   31   32 1
    56   31   58 1
    57   31   59 1
    58   32   37 1
    59   32   33 1
    60   33   34 1
    61   33   60 1
    62   33   61 1
    63   34   35 1
    64   34   62 1
    65   34   63 1
    66   35   36 1
    67   36   37 1
    68   36   64 1
    69   36   65 1
    70   37   66 1
    71   37   67 1
