@<TRIPOS>MOLECULE
CHEMBL246469
   70    75     0     0     0
SMALL
USER_CHARGES

@<TRIPOS>ATOM
      1 C1          2.3917    1.3296    1.1689 C.3       1 <0>         0.0296
      2 O1          2.5104   -0.0041    0.6697 O.3       1 <0>        -0.3865
      3 C2          1.8916   -0.2058   -0.6025 C.3       1 <0>         0.0598
      4 C3          2.0800   -1.6608   -1.0363 C.3       1 <0>         0.0620
      5 O2          1.3802   -2.5210   -0.1350 O.3       1 <0>        -0.3051
      6 C4          1.4459   -3.8571   -0.3802 C.ar      1 <0>         0.1030
      7 C5          2.1739   -4.3281   -1.4628 C.ar      1 <0>        -0.1643
      8 C6          2.2411   -5.6848   -1.7126 C.ar      1 <0>        -0.1416
      9 C7          1.5796   -6.5774   -0.8795 C.ar      1 <0>         0.1558
     10 C8          0.8510   -6.1050    0.2040 C.ar      1 <0>        -0.1421
     11 C9          0.7895   -4.7483    0.4557 C.ar      1 <0>        -0.1045
     12 N1          1.6469   -7.9521   -1.1322 N.pl3     1 <0>        -0.6452
     13 C10         1.0539   -8.9225   -0.1990 C.3       1 <0>         0.1021
     14 C11         0.1641   -9.8818   -0.9964 C.3       1 <0>        -0.0216
     15 N2          0.9467  -10.4855   -2.0822 N.4       1 <0>        -0.3771
     16 C12         1.3628   -9.4486   -3.0350 C.3       1 <0>        -0.0294
     17 C13         2.3071   -8.4676   -2.3415 C.3       1 <0>         0.1032
     18 C14         0.1258  -11.4858   -2.7775 C.3       1 <0>        -0.0301
     19 C15         0.9767  -12.2036   -3.8271 C.3       1 <0>         0.0938
     20 N3          0.1581  -13.2012   -4.5205 N.pl3     1 <0>        -0.4624
     21 C16         0.0629  -14.5245   -4.2080 C.2       1 <0>         0.2253
     22 N4         -0.7547  -15.1142   -5.0329 N.2       1 <0>        -0.4148
     23 C17        -1.2295  -14.2096   -5.9179 C.2       1 <0>        -0.0178
     24 C18        -0.6580  -12.9734   -5.5999 C.2       1 <0>         0.2887
     25 N5         -0.9660  -11.8915   -6.3246 N.2       1 <0>        -0.5654
     26 C19        -1.7980  -11.9413   -7.3366 C.2       1 <0>         0.6853
     27 N6         -2.4082  -13.0984   -7.7222 N.pl3     1 <0>        -0.3681
     28 C20        -2.1523  -14.2652   -7.0489 C.2       1 <0>         0.3913
     29 N7         -2.8596  -15.2221   -7.6173 N.2       1 <0>        -0.4939
     30 C21        -3.5521  -14.7189   -8.6438 C.2       1 <0>         0.3223
     31 N8         -3.3154  -13.4255   -8.7380 N.2       1 <0>        -0.3013
     32 C22        -4.4627  -15.4911   -9.5256 C.ar      1 <0>        -0.0070
     33 C23        -4.6545  -16.8544   -9.3101 C.ar      1 <0>        -0.0760
     34 C24        -5.5023  -17.5688  -10.1320 C.ar      1 <0>        -0.0920
     35 C25        -6.1617  -16.9347  -11.1693 C.ar      1 <0>        -0.1250
     36 C26        -5.9755  -15.5798  -11.3889 C.ar      1 <0>         0.0976
     37 C27        -5.1325  -14.8543  -10.5674 C.ar      1 <0>        -0.1131
     38 F1         -6.6222  -14.9656  -12.4037 F         1 <0>        -0.1317
     39 N9         -2.0654  -10.7849   -8.0341 N.pl3     1 <0>        -0.8003
     40 H1          1.3375    1.5835    1.2801 H         1 <0>         0.0446
     41 H2          2.8866    1.4004    2.1375 H         1 <0>         0.0902
     42 H3          2.8604    2.0222    0.4699 H         1 <0>         0.0441
     43 H4          0.8270    0.0163   -0.5280 H         1 <0>         0.0629
     44 H5          2.3499    0.4550   -1.3383 H         1 <0>         0.0746
     45 H6          1.6866   -1.7933   -2.0442 H         1 <0>         0.0781
     46 H7          3.1413   -1.9088   -1.0250 H         1 <0>         0.0727
     47 H8          2.6880   -3.6338   -2.1108 H         1 <0>         0.1330
     48 H9          2.8078   -6.0513   -2.5558 H         1 <0>         0.1255
     49 H10         0.3362   -6.7985    0.8525 H         1 <0>         0.1297
     50 H11         0.2268   -4.3811    1.3011 H         1 <0>         0.1374
     51 H12         1.8453   -9.4841    0.2973 H         1 <0>         0.0888
     52 H13         0.4530   -8.3970    0.5431 H         1 <0>         0.1278
     53 H14        -0.2075  -10.6660   -0.3367 H         1 <0>         0.1427
     54 H15        -0.6776   -9.3318   -1.4173 H         1 <0>         0.1339
     55 H16         1.8747   -9.9136   -3.8776 H         1 <0>         0.1405
     56 H17         0.4849   -8.9117   -3.3942 H         1 <0>         0.1360
     57 H18         2.5344   -7.6413   -3.0151 H         1 <0>         0.1262
     58 H19         3.2273   -8.9824   -2.0652 H         1 <0>         0.0875
     59 H20        -0.2506  -12.2116   -2.0566 H         1 <0>         0.1424
     60 H21        -0.7132  -10.9909   -3.2666 H         1 <0>         0.1380
     61 H22         1.3531  -11.4778   -4.5480 H         1 <0>         0.1163
     62 H23         1.8158  -12.6985   -3.3380 H         1 <0>         0.1245
     63 H24         0.5866  -15.0109   -3.3983 H         1 <0>         0.2327
     64 H25        -4.1399  -17.3515   -8.5011 H         1 <0>         0.1466
     65 H26        -5.6510  -18.6254   -9.9650 H         1 <0>         0.1461
     66 H27        -6.8237  -17.4979  -11.8103 H         1 <0>         0.1451
     67 H28        -4.9904  -13.7970  -10.7361 H         1 <0>         0.1449
     68 H29        -1.6408   -9.9524   -7.7740 H         1 <0>         0.4290
     69 H30        -2.6784  -10.8026   -8.7857 H         1 <0>         0.4302
     70 H31         1.7642  -10.9340   -1.6968 H         1 <0>         0.4245
@<TRIPOS>BOND
     1    1    2 1
     2    1   40 1
     3    1   41 1
     4    1   42 1
     5    2    3 1
     6    3    4 1
     7    3   43 1
     8    3   44 1
     9    4    5 1
    10    4   45 1
    11    4   46 1
    12    5    6 1
    13    6   11 ar
    14    6    7 ar
    15    7    8 ar
    16    7   47 1
    17    8    9 ar
    18    8   48 1
    19    9   10 ar
    20    9   12 1
    21   10   11 ar
    22   10   49 1
    23   11   50 1
    24   12   17 1
    25   12   13 1
    26   13   14 1
    27   13   51 1
    28   13   52 1
    29   14   15 1
    30   14   53 1
    31   14   54 1
    32   15   16 1
    33   15   18 1
    34   15   70 1
    35   16   17 1
    36   16   55 1
    37   16   56 1
    38   17   57 1
    39   17   58 1
    40   18   19 1
    41   18   59 1
    42   18   60 1
    43   19   20 1
    44   19   61 1
    45   19   62 1
    46   20   24 1
    47   20   21 1
    48   21   22 2
    49   21   63 1
    50   22   23 1
    51   23   28 1
    52   23   24 2
    53   24   25 1
    54   25   26 2
    55   26   27 1
    56   26   39 1
    57   27   31 1
    58   27   28 1
    59   28   29 2
    60   29   30 1
    61   30   31 2
    62   30   32 1
    63   32   37 ar
    64   32   33 ar
    65   33   34 ar
    66   33   64 1
    67   34   35 ar
    68   34   65 1
    69   35   36 ar
    70   35   66 1
    71   36   37 ar
    72   36   38 1
    73   37   67 1
    74   39   68 1
    75   39   69 1
