@<TRIPOS>MOLECULE
CHEMBL487569
   48    50     0     0     0
SMALL
USER_CHARGES

@<TRIPOS>ATOM
      1 C1         -0.2213    1.6554   -0.8165 C.3       1 <0>        -0.0740
      2 C2         -0.0896    0.1724   -0.5836 C.2       1 <0>         0.0919
      3 C3         -0.2436   -0.8259   -1.5530 C.2       1 <0>        -0.2639
      4 C4         -0.0484   -2.0227   -0.9543 C.2       1 <0>         0.1202
      5 N1          0.2215   -1.7872    0.3569 N.pl3     1 <0>        -0.3197
      6 N2          0.1935   -0.4009    0.5572 N.2       1 <0>        -0.2601
      7 C5          0.4837   -2.7530    1.3286 C.ar      1 <0>         0.6011
      8 N3          0.5935   -2.3802    2.5921 N.ar      1 <0>        -0.5220
      9 C6          0.8435   -3.2742    3.5481 C.ar      1 <0>         0.2714
     10 C7          0.9889   -4.6157    3.1985 C.ar      1 <0>        -0.2712
     11 C8          0.8657   -4.9663    1.8561 C.ar      1 <0>         0.4396
     12 N4          0.6103   -4.0175    0.9608 N.ar      1 <0>        -0.5316
     13 N5          1.0031   -6.2920    1.4584 N.am      1 <0>        -0.6542
     14 C9          0.9874   -6.6076    0.1482 C.2       1 <0>         0.5013
     15 O1          0.7609   -5.7506   -0.6793 O.2       1 <0>        -0.4678
     16 C10         1.2514   -8.0256   -0.2884 C.3       1 <0>        -0.1687
     17 C11         0.9658   -2.8479    4.9636 C.ar      1 <0>         0.0147
     18 C12         1.2330   -3.7890    5.9555 C.ar      1 <0>        -0.1583
     19 C13         1.3466   -3.3875    7.2767 C.ar      1 <0>         0.1621
     20 C14         1.1942   -2.0503    7.6124 C.ar      1 <0>        -0.2777
     21 C15         0.9277   -1.1109    6.6273 C.ar      1 <0>         0.1622
     22 C16         0.8195   -1.5048    5.3033 C.ar      1 <0>        -0.1329
     23 O2          0.7786    0.1983    6.9604 O.3       1 <0>        -0.3083
     24 C17         0.9092    0.5349    8.3430 C.3       1 <0>         0.0250
     25 O3          1.6072   -4.3050    8.2449 O.3       1 <0>        -0.3114
     26 C18         1.7114   -3.8216    9.5856 C.3       1 <0>         0.0253
     27 C19        -0.1179   -3.3728   -1.6200 C.3       1 <0>        -0.0816
     28 H1          0.7491    2.0672   -1.0937 H         1 <0>         0.0817
     29 H2         -0.9353    1.8350   -1.6204 H         1 <0>         0.0821
     30 H3         -0.5730    2.1367    0.0960 H         1 <0>         0.0767
     31 H4         -0.4776   -0.6681   -2.5955 H         1 <0>         0.1586
     32 H5          1.1923   -5.3645    3.9497 H         1 <0>         0.1596
     33 H6          1.1102   -6.9894    2.1241 H         1 <0>         0.4253
     34 H7          1.4328   -8.6479    0.5880 H         1 <0>         0.0795
     35 H8          0.3859   -8.4057   -0.8311 H         1 <0>         0.1022
     36 H9          2.1265   -8.0489   -0.9379 H         1 <0>         0.1023
     37 H10         1.3511   -4.8304    5.6948 H         1 <0>         0.1398
     38 H11         1.2829   -1.7400    8.6431 H         1 <0>         0.1390
     39 H12         0.6167   -0.7721    4.5362 H         1 <0>         0.1510
     40 H13         1.9030    0.2551    8.6927 H         1 <0>         0.0563
     41 H14         0.7680    1.6082    8.4706 H         1 <0>         0.1048
     42 H15         0.1564   -0.0018    8.9203 H         1 <0>         0.0563
     43 H16         1.9209   -4.6545   10.2569 H         1 <0>         0.1046
     44 H17         2.5197   -3.0930    9.6474 H         1 <0>         0.0568
     45 H18         0.7730   -3.3487    9.8752 H         1 <0>         0.0567
     46 H19         0.8858   -3.6910   -1.9021 H         1 <0>         0.0848
     47 H20        -0.5478   -4.0973   -0.9284 H         1 <0>         0.0992
     48 H21        -0.7420   -3.3068   -2.5113 H         1 <0>         0.0714
@<TRIPOS>BOND
     1    1    2 1
     2    1   28 1
     3    1   29 1
     4    1   30 1
     5    2    6 2
     6    2    3 1
     7    3    4 2
     8    3   31 1
     9    4    5 1
    10    4   27 1
    11    5    6 1
    12    5    7 1
    13    7   12 ar
    14    7    8 ar
    15    8    9 ar
    16    9   10 ar
    17    9   17 1
    18   10   11 ar
    19   10   32 1
    20   11   12 ar
    21   11   13 1
    22   13   14 am
    23   13   33 1
    24   14   15 2
    25   14   16 1
    26   16   34 1
    27   16   35 1
    28   16   36 1
    29   17   22 ar
    30   17   18 ar
    31   18   19 ar
    32   18   37 1
    33   19   20 ar
    34   19   25 1
    35   20   21 ar
    36   20   38 1
    37   21   22 ar
    38   21   23 1
    39   22   39 1
    40   23   24 1
    41   24   40 1
    42   24   41 1
    43   24   42 1
    44   25   26 1
    45   26   43 1
    46   26   44 1
    47   26   45 1
    48   27   46 1
    49   27   47 1
    50   27   48 1
