@<TRIPOS>MOLECULE
CHEMBL593746
   41    43     0     0     0
SMALL
USER_CHARGES

@<TRIPOS>ATOM
      1 C1         -0.0173    1.4248    0.0099 C.3       1 <0>         0.0329
      2 O1          0.0021   -0.0041    0.0020 O.3       1 <0>        -0.3905
      3 C2          0.6734   -0.5824    1.1231 C.3       1 <0>         0.1128
      4 C3          0.6333   -2.0848    1.0124 C.ar      1 <0>         0.1262
      5 C4          0.0099   -2.6735   -0.0719 C.ar      1 <0>        -0.1379
      6 C5         -0.0214   -4.0563   -0.1642 C.ar      1 <0>        -0.0750
      7 C6          0.5781   -4.7987    0.8420 C.ar      1 <0>        -0.1507
      8 C7          1.1826   -4.1402    1.8957 C.ar      1 <0>         0.1071
      9 N1          1.1979   -2.8225    1.9481 N.ar      1 <0>        -0.4652
     10 C8          1.8372   -4.9369    2.9947 C.3       1 <0>         0.1745
     11 N2          3.2683   -5.0735    2.7129 N.am      1 <0>        -0.6980
     12 C9          4.0612   -5.7524    3.5655 C.2       1 <0>         0.5884
     13 O2          3.5894   -6.2508    4.5673 O.2       1 <0>        -0.4860
     14 C10         5.5151   -5.8911    3.2792 C.ar      1 <0>         0.3852
     15 N3          6.2938   -6.5640    4.1160 N.ar      1 <0>        -0.5336
     16 C11         7.5964   -6.6890    3.8597 C.ar      1 <0>         0.4881
     17 N4          8.1135   -6.1371    2.7626 N.ar      1 <0>        -0.5797
     18 C12         7.3305   -5.4644    1.9276 C.ar      1 <0>         0.6143
     19 N5          6.0301   -5.3459    2.1839 N.ar      1 <0>        -0.5885
     20 N6          7.8647   -4.8921    0.7906 N.pl3     1 <0>        -0.7963
     21 C13         8.4633   -7.4361    4.7889 C.2       1 <0>         0.0042
     22 C14         9.8035   -7.6328    4.6489 C.2       1 <0>        -0.1119
     23 C15        10.2191   -8.3928    5.7571 C.2       1 <0>        -0.2281
     24 C16         9.1250   -8.6217    6.5130 C.2       1 <0>         0.0065
     25 O3          8.0685   -8.0386    5.9282 O.3       1 <0>        -0.1458
     26 H1          1.0053    1.8021    0.0021 H         1 <0>         0.0452
     27 H2         -0.5445    1.7859   -0.8732 H         1 <0>         0.0912
     28 H3         -0.5275    1.7763    0.9067 H         1 <0>         0.0456
     29 H4          1.7103   -0.2468    1.1385 H         1 <0>         0.0747
     30 H5          0.1775   -0.2725    2.0430 H         1 <0>         0.0753
     31 H6         -0.4472   -2.0638   -0.8372 H         1 <0>         0.1477
     32 H7         -0.5016   -4.5439   -0.9997 H         1 <0>         0.1407
     33 H8          0.5724   -5.8780    0.8027 H         1 <0>         0.1402
     34 H9          1.7017   -4.4229    3.9463 H         1 <0>         0.0941
     35 H10         1.3813   -5.9256    3.0478 H         1 <0>         0.0939
     36 H11         3.6452   -4.6754    1.9127 H         1 <0>         0.4140
     37 H12         8.8119   -4.9815    0.6018 H         1 <0>         0.4226
     38 H13         7.2928   -4.4006    0.1805 H         1 <0>         0.4225
     39 H14        10.4267   -7.2746    3.8429 H         1 <0>         0.1637
     40 H15        11.2241   -8.7301    5.9636 H         1 <0>         0.1603
     41 H16         9.1044   -9.1788    7.4380 H         1 <0>         0.2151
@<TRIPOS>BOND
     1    1    2 1
     2    1   26 1
     3    1   27 1
     4    1   28 1
     5    2    3 1
     6    3    4 1
     7    3   29 1
     8    3   30 1
     9    4    9 ar
    10    4    5 ar
    11    5    6 ar
    12    5   31 1
    13    6    7 ar
    14    6   32 1
    15    7    8 ar
    16    7   33 1
    17    8    9 ar
    18    8   10 1
    19   10   11 1
    20   10   34 1
    21   10   35 1
    22   11   12 am
    23   11   36 1
    24   12   13 2
    25   12   14 1
    26   14   19 ar
    27   14   15 ar
    28   15   16 ar
    29   16   17 ar
    30   16   21 1
    31   17   18 ar
    32   18   19 ar
    33   18   20 1
    34   20   37 1
    35   20   38 1
    36   21   25 1
    37   21   22 2
    38   22   23 1
    39   22   39 1
    40   23   24 2
    41   23   40 1
    42   24   25 1
    43   24   41 1
