@<TRIPOS>MOLECULE
CHEMBL576351
   65    70     0     0     0
SMALL
USER_CHARGES

@<TRIPOS>ATOM
      1 C1         -0.0187    1.5258    0.0104 C.3       1 <0>        -0.1548
      2 C2          0.0021   -0.0041    0.0020 C.3       1 <0>        -0.0937
      3 C3          0.7182   -0.4975   -1.2568 C.3       1 <0>        -0.1485
      4 C4          0.7421   -0.5109    1.2415 C.3       1 <0>        -0.1299
      5 C5         -0.0416   -0.1236    2.4973 C.3       1 <0>         0.1250
      6 N1          0.6670   -0.6089    3.6841 N.pl3     1 <0>        -0.3347
      7 C6          1.0416    0.1526    4.7268 C.2       1 <0>         0.1575
      8 C7          1.6736   -0.6591    5.6329 C.2       1 <0>        -0.2675
      9 C8          1.6657   -2.0167    5.0649 C.2       1 <0>         0.3012
     10 N2          1.0508   -1.9366    3.9064 N.2       1 <0>        -0.2479
     11 N3          2.2397   -3.0201    5.7795 N.2       1 <0>        -0.4471
     12 C9          2.7904   -2.8100    6.9423 C.2       1 <0>         0.6509
     13 N4          2.8449   -1.5839    7.5487 N.pl3     1 <0>        -0.3750
     14 C10         2.3070   -0.4788    6.9451 C.2       1 <0>         0.4109
     15 N5          2.4983    0.5517    7.7378 N.2       1 <0>        -0.5124
     16 C11         3.1456    0.1561    8.8424 C.2       1 <0>         0.3448
     17 N6          3.3754   -1.1403    8.7691 N.2       1 <0>        -0.2919
     18 C12         3.5377    1.0330    9.9654 C.2       1 <0>         0.0433
     19 C13         4.1990    0.6443   11.0879 C.2       1 <0>        -0.1370
     20 C14         4.3637    1.7969   11.8815 C.2       1 <0>        -0.2190
     21 C15         3.8008    2.8214   11.2113 C.2       1 <0>        -0.0052
     22 O1          3.3073    2.3573   10.0520 O.3       1 <0>        -0.1533
     23 N7          3.3512   -3.8873    7.6010 N.am      1 <0>        -0.6463
     24 C16         3.3187   -5.1119    7.0392 C.2       1 <0>         0.5065
     25 O2          2.7973   -5.2683    5.9557 O.2       1 <0>        -0.4316
     26 C17         3.9304   -6.2870    7.7577 C.3       1 <0>        -0.0932
     27 C18         3.7618   -7.5298    6.9222 C.ar      1 <0>        -0.0749
     28 C19         2.6320   -8.3134    7.0730 C.ar      1 <0>        -0.0970
     29 C20         2.4725   -9.4527    6.3105 C.ar      1 <0>        -0.1085
     30 C21         3.4521   -9.8130    5.3875 C.ar      1 <0>        -0.0397
     31 C22         4.5882   -9.0199    5.2397 C.ar      1 <0>        -0.1086
     32 C23         4.7348   -7.8797    6.0034 C.ar      1 <0>        -0.0971
     33 C24         3.2863  -11.0371    4.5652 C.ar      1 <0>        -0.0468
     34 C25         2.1477  -11.8272    4.7092 C.ar      1 <0>        -0.1104
     35 C26         1.9985  -12.9644    3.9415 C.ar      1 <0>        -0.1177
     36 C27         2.9768  -13.3205    3.0307 C.ar      1 <0>        -0.1187
     37 C28         4.1093  -12.5400    2.8840 C.ar      1 <0>        -0.1177
     38 C29         4.2660  -11.3973    3.6421 C.ar      1 <0>        -0.1104
     39 H1          1.0039    1.9031    0.0027 H         1 <0>         0.0574
     40 H2         -0.5459    1.8868   -0.8726 H         1 <0>         0.0596
     41 H3         -0.5289    1.8773    0.9072 H         1 <0>         0.0552
     42 H4         -1.0205   -0.3814    0.0098 H         1 <0>         0.0759
     43 H5          1.7408   -0.1202   -1.2645 H         1 <0>         0.0557
     44 H6          0.7330   -1.5874   -1.2628 H         1 <0>         0.0574
     45 H7          0.1910   -0.1364   -2.1398 H         1 <0>         0.0586
     46 H8          0.8346   -1.5958    1.1912 H         1 <0>         0.0839
     47 H9          1.7350   -0.0630    1.2804 H         1 <0>         0.0720
     48 H10        -0.1341    0.9613    2.5476 H         1 <0>         0.1093
     49 H11        -1.0345   -0.5716    2.4584 H         1 <0>         0.0982
     50 H12         0.8749    1.2145    4.8316 H         1 <0>         0.1999
     51 H13         4.5331   -0.3548   11.3255 H         1 <0>         0.1606
     52 H14         4.8493    1.8492   12.8448 H         1 <0>         0.1595
     53 H15         3.7571    3.8464   11.5489 H         1 <0>         0.2138
     54 H16         3.7683   -3.7622    8.4678 H         1 <0>         0.4303
     55 H17         4.9918   -6.1004    7.9213 H         1 <0>         0.1129
     56 H18         3.4334   -6.4245    8.7180 H         1 <0>         0.1130
     57 H19         1.8735   -8.0334    7.7890 H         1 <0>         0.1239
     58 H20         1.5901  -10.0641    6.4293 H         1 <0>         0.1265
     59 H21         5.3508   -9.2948    4.5260 H         1 <0>         0.1265
     60 H22         5.6127   -7.2617    5.8863 H         1 <0>         0.1239
     61 H23         1.3836  -11.5505    5.4205 H         1 <0>         0.1253
     62 H24         1.1164  -13.5776    4.0522 H         1 <0>         0.1245
     63 H25         2.8561  -14.2113    2.4322 H         1 <0>         0.1230
     64 H26         4.8702  -12.8227    2.1717 H         1 <0>         0.1245
     65 H27         5.1485  -10.7862    3.5236 H         1 <0>         0.1253
@<TRIPOS>BOND
     1    1    2 1
     2    1   39 1
     3    1   40 1
     4    1   41 1
     5    2    3 1
     6    2    4 1
     7    2   42 1
     8    3   43 1
     9    3   44 1
    10    3   45 1
    11    4    5 1
    12    4   46 1
    13    4   47 1
    14    5    6 1
    15    5   48 1
    16    5   49 1
    17    6   10 1
    18    6    7 1
    19    7    8 2
    20    7   50 1
    21    8   14 1
    22    8    9 1
    23    9   10 2
    24    9   11 1
    25   11   12 2
    26   12   13 1
    27   12   23 1
    28   13   17 1
    29   13   14 1
    30   14   15 2
    31   15   16 1
    32   16   17 2
    33   16   18 1
    34   18   22 1
    35   18   19 2
    36   19   20 1
    37   19   51 1
    38   20   21 2
    39   20   52 1
    40   21   22 1
    41   21   53 1
    42   23   24 am
    43   23   54 1
    44   24   25 2
    45   24   26 1
    46   26   27 1
    47   26   55 1
    48   26   56 1
    49   27   32 ar
    50   27   28 ar
    51   28   29 ar
    52   28   57 1
    53   29   30 ar
    54   29   58 1
    55   30   31 ar
    56   30   33 1
    57   31   32 ar
    58   31   59 1
    59   32   60 1
    60   33   38 ar
    61   33   34 ar
    62   34   35 ar
    63   34   61 1
    64   35   36 ar
    65   35   62 1
    66   36   37 ar
    67   36   63 1
    68   37   38 ar
    69   37   64 1
    70   38   65 1
