@<TRIPOS>MOLECULE
CHEMBL175664
   61    66     0     0     0
SMALL
USER_CHARGES

@<TRIPOS>ATOM
      1 C1         -0.0167    1.3781    0.0096 C.ar      1 <0>        -0.1101
      2 C2          1.1709    2.0855    0.0021 C.ar      1 <0>        -0.1128
      3 C3          2.3773    1.4107   -0.0130 C.ar      1 <0>        -0.1098
      4 C4          2.3960    0.0285   -0.0201 C.ar      1 <0>        -0.0968
      5 C5          1.2084   -0.6789   -0.0117 C.ar      1 <0>        -0.1165
      6 C6          0.0021   -0.0041    0.0020 C.ar      1 <0>        -0.1147
      7 C7          3.7112   -0.7071   -0.0376 C.3       1 <0>        -0.0536
      8 C8          3.7885   -1.5882   -1.2877 C.3       1 <0>        -0.1397
      9 C9          5.0904   -2.3918   -1.2589 C.3       1 <0>        -0.0061
     10 N1          5.1211   -3.2377   -0.0597 N.4       1 <0>        -0.3827
     11 C10         5.1196   -2.3966    1.1432 C.3       1 <0>        -0.0124
     12 C11         3.8189   -1.5931    1.2068 C.3       1 <0>        -0.1381
     13 C12         6.3355   -4.0641   -0.0761 C.3       1 <0>         0.0450
     14 C13         6.3087   -5.0196    1.0889 C.ar      1 <0>        -0.1652
     15 C14         6.8534   -4.6427    2.3037 C.ar      1 <0>        -0.0826
     16 C15         6.8320   -5.5141    3.3776 C.ar      1 <0>        -0.1120
     17 C16         6.2669   -6.7660    3.2429 C.ar      1 <0>        -0.0593
     18 C17         5.7165   -7.1514    2.0213 C.ar      1 <0>        -0.0365
     19 C18         5.7359   -6.2663    0.9437 C.ar      1 <0>        -0.0509
     20 C19         5.1083   -8.4944    1.8701 C.2       1 <0>         0.2297
     21 C20         5.0814   -9.3651    2.9446 C.2       1 <0>        -0.2023
     22 C21         4.4960  -10.6315    2.7660 C.2       1 <0>         0.3486
     23 N2          4.3104  -11.6730    3.5619 N.2       1 <0>        -0.5143
     24 C22         3.6915  -12.6474    2.8876 C.2       1 <0>         0.3630
     25 N3          3.4690  -12.2491    1.6478 N.2       1 <0>        -0.3135
     26 N4          3.9776  -10.9488    1.5363 N.pl3     1 <0>        -0.3619
     27 C23         4.0364  -10.0447    0.5194 C.2       1 <0>         0.6609
     28 N5          4.5795   -8.8615    0.6924 N.2       1 <0>        -0.5605
     29 N6          3.5131  -10.3747   -0.7090 N.pl3     1 <0>        -0.8041
     30 C24         3.3154  -13.9647    3.4424 C.2       1 <0>         0.0242
     31 C25         3.5333  -14.3853    4.7166 C.2       1 <0>        -0.1190
     32 C26         3.0177  -15.6935    4.8059 C.2       1 <0>        -0.2195
     33 C27         2.5157  -16.0035    3.5943 C.2       1 <0>         0.0006
     34 O1          2.6921  -14.9548    2.7748 O.3       1 <0>        -0.1604
     35 H1         -0.9591    1.9053    0.0259 H         1 <0>         0.1274
     36 H2          1.1563    3.1654    0.0076 H         1 <0>         0.1278
     37 H3          3.3051    1.9634   -0.0196 H         1 <0>         0.1237
     38 H4          1.2231   -1.7588   -0.0176 H         1 <0>         0.1174
     39 H5         -0.9258   -0.5567    0.0082 H         1 <0>         0.1259
     40 H6          4.5307    0.0115   -0.0454 H         1 <0>         0.0959
     41 H7          2.9394   -2.2714   -1.3046 H         1 <0>         0.0895
     42 H8          3.7685   -0.9595   -2.1779 H         1 <0>         0.1144
     43 H9          5.1488   -3.0201   -2.1477 H         1 <0>         0.1324
     44 H10         5.9388   -1.7078   -1.2423 H         1 <0>         0.1305
     45 H11         5.1996   -3.0283    2.0278 H         1 <0>         0.1327
     46 H12         5.9674   -1.7124    1.1086 H         1 <0>         0.1297
     47 H13         3.8205   -0.9680    2.0997 H         1 <0>         0.1134
     48 H14         2.9704   -2.2764    1.2417 H         1 <0>         0.0889
     49 H15         6.3785   -4.6282   -1.0078 H         1 <0>         0.1384
     50 H16         7.2130   -3.4220    0.0007 H         1 <0>         0.1375
     51 H17         7.2973   -3.6643    2.4137 H         1 <0>         0.1352
     52 H18         7.2587   -5.2144    4.3234 H         1 <0>         0.1439
     53 H19         6.2515   -7.4459    4.0819 H         1 <0>         0.1448
     54 H20         5.3073   -6.5579   -0.0038 H         1 <0>         0.1447
     55 H21         5.5004   -9.0793    3.8981 H         1 <0>         0.1679
     56 H22         3.1066  -11.2448   -0.8451 H         1 <0>         0.4281
     57 H23         3.5504   -9.7372   -1.4391 H         1 <0>         0.4290
     58 H24         4.0095  -13.8250    5.5075 H         1 <0>         0.1638
     59 H25         3.0238  -16.3278    5.6799 H         1 <0>         0.1622
     60 H26         2.0458  -16.9387    3.3280 H         1 <0>         0.2161
     61 H27         4.3092   -3.8367   -0.0510 H         1 <0>         0.4221
@<TRIPOS>BOND
     1    1    6 ar
     2    1    2 ar
     3    1   35 1
     4    2    3 ar
     5    2   36 1
     6    3    4 ar
     7    3   37 1
     8    4    5 ar
     9    4    7 1
    10    5    6 ar
    11    5   38 1
    12    6   39 1
    13    7   12 1
    14    7    8 1
    15    7   40 1
    16    8    9 1
    17    8   41 1
    18    8   42 1
    19    9   10 1
    20    9   43 1
    21    9   44 1
    22   10   11 1
    23   10   13 1
    24   10   61 1
    25   11   12 1
    26   11   45 1
    27   11   46 1
    28   12   47 1
    29   12   48 1
    30   13   14 1
    31   13   49 1
    32   13   50 1
    33   14   19 ar
    34   14   15 ar
    35   15   16 ar
    36   15   51 1
    37   16   17 ar
    38   16   52 1
    39   17   18 ar
    40   17   53 1
    41   18   19 ar
    42   18   20 1
    43   19   54 1
    44   20   28 1
    45   20   21 2
    46   21   22 1
    47   21   55 1
    48   22   26 1
    49   22   23 2
    50   23   24 1
    51   24   25 2
    52   24   30 1
    53   25   26 1
    54   26   27 1
    55   27   28 2
    56   27   29 1
    57   29   56 1
    58   29   57 1
    59   30   34 1
    60   30   31 2
    61   31   32 1
    62   31   58 1
    63   32   33 2
    64   32   59 1
    65   33   34 1
    66   33   60 1
