@<TRIPOS>MOLECULE
CHEMBL180109
   31    34     0     0     0
SMALL
USER_CHARGES

@<TRIPOS>ATOM
      1 C1         -0.0162    1.3434    0.0094 C.2       1 <0>        -0.2191
      2 C2          1.3252    1.7744   -0.0011 C.2       1 <0>        -0.1249
      3 C3          2.0961    0.6548   -0.0144 C.2       1 <0>         0.0341
      4 O1          1.2796   -0.4165   -0.0124 O.3       1 <0>        -0.1605
      5 C4          0.0021   -0.0041    0.0020 C.2       1 <0>        -0.0059
      6 C5          3.5736    0.6193   -0.0287 C.2       1 <0>         0.3553
      7 N1          4.3724    1.6910   -0.0248 N.2       1 <0>        -0.5193
      8 C6          5.6373    1.3016   -0.0409 C.2       1 <0>         0.3518
      9 C7          6.8653    1.9887   -0.0455 C.2       1 <0>        -0.2045
     10 C8          8.0335    1.2492   -0.0649 C.2       1 <0>         0.2431
     11 N2          7.9817   -0.0919   -0.0787 N.2       1 <0>        -0.5482
     12 C9          6.8384   -0.7378   -0.0744 C.2       1 <0>         0.6561
     13 N3          5.6515   -0.0698   -0.0557 N.pl3     1 <0>        -0.3607
     14 N4          4.3112   -0.4768   -0.0417 N.2       1 <0>        -0.3176
     15 N5          6.8393   -2.1132   -0.0891 N.pl3     1 <0>        -0.8053
     16 C10         9.3456    1.9389   -0.0708 C.ar      1 <0>        -0.0098
     17 C11         9.4235    3.3350   -0.0512 C.ar      1 <0>        -0.1443
     18 C12        10.6655    3.9361   -0.0571 C.ar      1 <0>         0.1005
     19 N6         11.7681    3.2123   -0.0808 N.ar      1 <0>        -0.4740
     20 C13        11.7390    1.8936   -0.0998 C.ar      1 <0>         0.0970
     21 C14        10.5396    1.2113   -0.0902 C.ar      1 <0>        -0.1267
     22 H1         -0.8931    1.9736    0.0252 H         1 <0>         0.1603
     23 H2          1.6735    2.7967    0.0011 H         1 <0>         0.1635
     24 H3         -0.8667   -0.6456    0.0072 H         1 <0>         0.2140
     25 H4          6.8946    3.0682   -0.0346 H         1 <0>         0.1695
     26 H5          7.6797   -2.5975   -0.1025 H         1 <0>         0.4305
     27 H6          5.9997   -2.5988   -0.0861 H         1 <0>         0.4254
     28 H7          8.5249    3.9338   -0.0321 H         1 <0>         0.1450
     29 H8         10.7359    5.0137   -0.0424 H         1 <0>         0.1639
     30 H9         12.6664    1.3406   -0.1193 H         1 <0>         0.1623
     31 H10        10.5233    0.1315   -0.1013 H         1 <0>         0.1483
@<TRIPOS>BOND
     1    1    5 2
     2    1    2 1
     3    1   22 1
     4    2    3 2
     5    2   23 1
     6    3    4 1
     7    3    6 1
     8    4    5 1
     9    5   24 1
    10    6   14 2
    11    6    7 1
    12    7    8 2
    13    8   13 1
    14    8    9 1
    15    9   10 2
    16    9   25 1
    17   10   11 1
    18   10   16 1
    19   11   12 2
    20   12   13 1
    21   12   15 1
    22   13   14 1
    23   15   26 1
    24   15   27 1
    25   16   21 ar
    26   16   17 ar
    27   17   18 ar
    28   17   28 1
    29   18   19 ar
    30   18   29 1
    31   19   20 ar
    32   20   21 ar
    33   20   30 1
    34   21   31 1
