@<TRIPOS>MOLECULE
CHEMBL222784
   59    64     0     0     0
SMALL
USER_CHARGES

@<TRIPOS>ATOM
      1 C1         -0.0167    1.3779    0.0096 C.ar      1 <0>        -0.1245
      2 C2          1.1834    2.0708    0.0019 C.ar      1 <0>        -0.0987
      3 C3          2.3677    1.3415   -0.0133 C.ar      1 <0>         0.0651
      4 C4          2.3054   -0.0445   -0.0202 C.ar      1 <0>         0.0167
      5 N1          1.1428   -0.6656   -0.0129 N.ar      1 <0>        -0.4490
      6 C5          0.0021   -0.0041    0.0020 C.ar      1 <0>         0.0742
      7 O1          3.5688    1.9776   -0.0218 O.3       1 <0>        -0.2960
      8 C6          4.7379    1.1560   -0.0374 C.3       1 <0>         0.0451
      9 C7          5.9845    2.0430   -0.0451 C.3       1 <0>        -0.1098
     10 H1          5.9327    2.7390   -0.8823 H         1 <0>         0.1353
     11 C8          6.0662    2.8259    1.2698 C.3       1 <0>        -0.1284
     12 C9          6.1885    1.8300    2.4239 C.3       1 <0>        -0.1434
     13 C10         7.4178    0.9390    2.2154 C.3       1 <0>         0.0154
     14 H2          8.3183    1.5531    2.2169 H         1 <0>         0.1487
     15 C11         7.4758   -0.0611    3.3781 C.3       1 <0>         0.1088
     16 N2          8.5476   -1.0330    3.1255 N.pl3     1 <0>        -0.5973
     17 C12         8.5672   -1.7043    1.8157 C.3       1 <0>         0.0884
     18 C13         8.4943   -0.6266    0.7317 C.3       1 <0>        -0.0216
     19 N3          7.3123    0.2253    0.9385 N.4       1 <0>        -0.3844
     20 C14         7.2326    1.1715   -0.1798 C.3       1 <0>         0.0000
     21 C15         9.4962   -1.3049    4.0755 C.2       1 <0>         0.6717
     22 N4         10.4848   -2.2171    3.7956 N.pl3     1 <0>        -0.6592
     23 C16        11.6817   -2.1480    4.5081 C.2       1 <0>         0.6287
     24 N5         11.5418   -1.6459    5.7917 N.pl3     1 <0>        -0.4289
     25 C17        10.4251   -0.9125    6.1360 C.2       1 <0>         0.4989
     26 N6          9.4431   -0.6795    5.2398 N.2       1 <0>        -0.5257
     27 N7         10.5610   -0.5585    7.3881 N.2       1 <0>        -0.4811
     28 C18        11.7207   -1.0407    7.8707 C.2       1 <0>         0.3441
     29 N8         12.3446   -1.7136    6.9182 N.2       1 <0>        -0.2731
     30 C19        12.2192   -0.8484    9.2484 C.2       1 <0>         0.0279
     31 C20        11.5858   -0.1642   10.2379 C.2       1 <0>        -0.1214
     32 C21        12.4144   -0.2352   11.3752 C.2       1 <0>        -0.2193
     33 C22        13.5014   -0.9518   11.0276 C.2       1 <0>         0.0001
     34 O2         13.3774   -1.3255    9.7438 O.3       1 <0>        -0.1602
     35 N9         12.8267   -2.5221    4.0122 N.2       1 <0>        -0.6685
     36 H3         -0.9555    1.9114    0.0259 H         1 <0>         0.1503
     37 H4          1.1987    3.1507    0.0072 H         1 <0>         0.1469
     38 H5          3.2189   -0.6205   -0.0320 H         1 <0>         0.1487
     39 H6         -0.9300   -0.5495    0.0080 H         1 <0>         0.1655
     40 H7          4.7484    0.5222    0.8493 H         1 <0>         0.0575
     41 H8          4.7310    0.5312   -0.9305 H         1 <0>         0.0780
     42 H9          6.9401    3.4771    1.2542 H         1 <0>         0.0903
     43 H10         5.1635    3.4237    1.3963 H         1 <0>         0.1071
     44 H11         6.2909    2.3744    3.3627 H         1 <0>         0.1234
     45 H12         5.2935    1.2090    2.4627 H         1 <0>         0.0920
     46 H13         7.6788    0.4717    4.3071 H         1 <0>         0.1544
     47 H14         6.5222   -0.5831    3.4575 H         1 <0>         0.1046
     48 H15         9.4900   -2.2742    1.7074 H         1 <0>         0.1292
     49 H16         7.7092   -2.3712    1.7305 H         1 <0>         0.1146
     50 H17         9.3914   -0.0090    0.7747 H         1 <0>         0.1402
     51 H18         8.4306   -1.1018   -0.2472 H         1 <0>         0.1546
     52 H19         7.1903    0.6235   -1.1211 H         1 <0>         0.1405
     53 H20         8.1186    1.8064   -0.1739 H         1 <0>         0.1417
     54 H21        10.6320    0.3374   10.1659 H         1 <0>         0.1634
     55 H22        12.2161    0.2023   12.3426 H         1 <0>         0.1618
     56 H23        14.3322   -1.1899   11.6753 H         1 <0>         0.2159
     57 H24        13.6325   -2.4546    4.5479 H         1 <0>         0.3850
     58 H25        10.3527   -2.8963    3.1158 H         1 <0>         0.4370
     59 H26         6.4841   -0.3510    0.9422 H         1 <0>         0.4189
@<TRIPOS>BOND
     1    1    6 ar
     2    1    2 ar
     3    1   36 1
     4    2    3 ar
     5    2   37 1
     6    3    4 ar
     7    3    7 1
     8    4    5 ar
     9    4   38 1
    10    5    6 ar
    11    6   39 1
    12    7    8 1
    13    8    9 1
    14    8   40 1
    15    8   41 1
    16    9   10 1
    17    9   20 1
    18    9   11 1
    19   11   12 1
    20   11   42 1
    21   11   43 1
    22   12   13 1
    23   12   44 1
    24   12   45 1
    25   13   14 1
    26   13   19 1
    27   13   15 1
    28   15   16 1
    29   15   46 1
    30   15   47 1
    31   16   17 1
    32   16   21 1
    33   17   18 1
    34   17   48 1
    35   17   49 1
    36   18   19 1
    37   18   50 1
    38   18   51 1
    39   19   20 1
    40   19   59 1
    41   20   52 1
    42   20   53 1
    43   21   26 2
    44   21   22 1
    45   22   23 1
    46   22   58 1
    47   23   24 1
    48   23   35 2
    49   24   29 1
    50   24   25 1
    51   25   26 1
    52   25   27 2
    53   27   28 1
    54   28   29 2
    55   28   30 1
    56   30   34 1
    57   30   31 2
    58   31   32 1
    59   31   54 1
    60   32   33 2
    61   32   55 1
    62   33   34 1
    63   33   56 1
    64   35   57 1
