@<TRIPOS>MOLECULE
CHEMBL409711
   57    60     0     0     0
SMALL
USER_CHARGES

@<TRIPOS>ATOM
      1 C1         -0.0270    1.5052    0.0152 C.3       1 <0>        -0.0779
      2 C2         -0.0058   -0.0016    0.0059 C.2       1 <0>         0.1073
      3 C3         -0.0010   -0.8138   -1.1343 C.2       1 <0>        -0.2590
      4 C4          0.0195   -2.1035   -0.7278 C.2       1 <0>         0.1210
      5 N1          0.0273   -2.1062    0.6311 N.pl3     1 <0>        -0.3376
      6 N2          0.0168   -0.7731    1.0618 N.2       1 <0>        -0.2894
      7 C5          0.0479   -3.2358    1.4515 C.ar      1 <0>         0.4534
      8 C6          0.5560   -3.1585    2.7443 C.ar      1 <0>        -0.2536
      9 C7          0.5563   -4.3110    3.5266 C.ar      1 <0>         0.4257
     10 N3          0.0745   -5.4391    3.0159 N.ar      1 <0>        -0.5110
     11 C8         -0.4016   -5.4750    1.7799 C.ar      1 <0>         0.4283
     12 N4         -0.4225   -4.3968    1.0098 N.ar      1 <0>        -0.5167
     13 C9         -0.9310   -6.7547    1.2461 C.ar      1 <0>         0.1613
     14 C10        -0.9255   -7.8927    2.0490 C.ar      1 <0>        -0.1133
     15 C11        -1.4227   -9.0796    1.5374 C.ar      1 <0>        -0.0860
     16 C12        -1.9092   -9.0880    0.2383 C.ar      1 <0>        -0.1479
     17 C13        -1.8840   -7.9201   -0.5029 C.ar      1 <0>         0.0996
     18 N5         -1.4104   -6.8037    0.0104 N.ar      1 <0>        -0.4398
     19 N6          1.0549   -4.2815    4.8249 N.am      1 <0>        -0.6514
     20 C14         0.9578   -5.3734    5.6091 C.2       1 <0>         0.5084
     21 O1          0.5203   -6.4092    5.1548 O.2       1 <0>        -0.4509
     22 C15         1.3928   -5.3071    7.0504 C.3       1 <0>         0.0373
     23 N7          1.1881   -6.6163    7.6844 N.3       1 <0>        -0.5230
     24 C16        -0.2425   -6.9416    7.7711 C.3       1 <0>         0.0172
     25 C17        -0.4097   -8.3350    8.3813 C.3       1 <0>         0.0006
     26 N8          0.1977   -8.3602    9.7184 N.4       1 <0>        -0.3894
     27 C18         1.6312   -8.0577    9.6127 C.3       1 <0>        -0.0013
     28 C19         1.8153   -6.6621    9.0128 C.3       1 <0>         0.0265
     29 C20         0.0212   -9.6927   10.3110 C.3       1 <0>        -0.0459
     30 C21         0.0307   -3.3178   -1.6203 C.3       1 <0>        -0.1121
     31 H1          0.9954    1.8830    0.0064 H         1 <0>         0.0850
     32 H2         -0.5554    1.8666   -0.8670 H         1 <0>         0.0858
     33 H3         -0.5362    1.8560    0.9128 H         1 <0>         0.0772
     34 H4         -0.0117   -0.4707   -2.1583 H         1 <0>         0.1609
     35 H5          0.9414   -2.2271    3.1320 H         1 <0>         0.1615
     36 H6         -0.5385   -7.8501    3.0564 H         1 <0>         0.1541
     37 H7         -1.4311   -9.9784    2.1361 H         1 <0>         0.1406
     38 H8         -2.3034   -9.9975   -0.1904 H         1 <0>         0.1425
     39 H9         -2.2619   -7.9229   -1.5146 H         1 <0>         0.1661
     40 H10         1.4724   -3.4751    5.1659 H         1 <0>         0.4260
     41 H11         2.4487   -5.0408    7.0993 H         1 <0>         0.1239
     42 H12         0.8036   -4.5539    7.5735 H         1 <0>         0.0834
     43 H13        -0.7451   -6.2066    8.3998 H         1 <0>         0.0586
     44 H14        -0.6800   -6.9268    6.7729 H         1 <0>         0.1393
     45 H15        -1.4706   -8.5724    8.4596 H         1 <0>         0.1364
     46 H16         0.0814   -9.0714    7.7452 H         1 <0>         0.1403
     47 H17         2.0833   -8.0896   10.6040 H         1 <0>         0.1380
     48 H18         2.1118   -8.7956    8.9703 H         1 <0>         0.1393
     49 H19         2.8792   -6.4433    8.9204 H         1 <0>         0.1264
     50 H20         1.3466   -5.9225    9.6619 H         1 <0>         0.0639
     51 H21         0.5032  -10.4384    9.6787 H         1 <0>         0.1236
     52 H22         0.4719   -9.7117   11.3033 H         1 <0>         0.1244
     53 H23        -1.0425   -9.9169   10.3908 H         1 <0>         0.1244
     54 H24         1.0609   -3.5966   -1.8416 H         1 <0>         0.0770
     55 H25        -0.4689   -4.1445   -1.1152 H         1 <0>         0.1114
     56 H26        -0.4919   -3.0906   -2.5495 H         1 <0>         0.0872
     57 H27        -0.2491   -7.6704   10.3037 H         1 <0>         0.4219
@<TRIPOS>BOND
     1    1    2 1
     2    1   31 1
     3    1   32 1
     4    1   33 1
     5    2    6 2
     6    2    3 1
     7    3    4 2
     8    3   34 1
     9    4    5 1
    10    4   30 1
    11    5    6 1
    12    5    7 1
    13    7   12 ar
    14    7    8 ar
    15    8    9 ar
    16    8   35 1
    17    9   10 ar
    18    9   19 1
    19   10   11 ar
    20   11   12 ar
    21   11   13 1
    22   13   18 ar
    23   13   14 ar
    24   14   15 ar
    25   14   36 1
    26   15   16 ar
    27   15   37 1
    28   16   17 ar
    29   16   38 1
    30   17   18 ar
    31   17   39 1
    32   19   20 am
    33   19   40 1
    34   20   21 2
    35   20   22 1
    36   22   23 1
    37   22   41 1
    38   22   42 1
    39   23   28 1
    40   23   24 1
    41   24   25 1
    42   24   43 1
    43   24   44 1
    44   25   26 1
    45   25   45 1
    46   25   46 1
    47   26   27 1
    48   26   29 1
    49   26   57 1
    50   27   28 1
    51   27   47 1
    52   27   48 1
    53   28   49 1
    54   28   50 1
    55   29   51 1
    56   29   52 1
    57   29   53 1
    58   30   54 1
    59   30   55 1
    60   30   56 1
