@<TRIPOS>MOLECULE
CHEMBL22202
   57    61     0     0     0
SMALL
USER_CHARGES

@<TRIPOS>ATOM
      1 C1         -0.0162    1.3433    0.0094 C.2       1 <0>        -0.2200
      2 C2          1.3252    1.7744   -0.0011 C.2       1 <0>        -0.1376
      3 C3          2.0962    0.6548   -0.0144 C.2       1 <0>         0.0429
      4 O1          1.2797   -0.4166   -0.0124 O.3       1 <0>        -0.1521
      5 C4          0.0021   -0.0041    0.0020 C.2       1 <0>        -0.0045
      6 C5          3.5736    0.6193   -0.0287 C.2       1 <0>         0.3500
      7 N1          4.3223   -0.4908   -0.0472 N.2       1 <0>        -0.5167
      8 C6          5.5979   -0.1638   -0.0558 C.2       1 <0>         0.4067
      9 C7          6.8494   -0.9218   -0.0750 C.2       1 <0>        -0.2677
     10 C8          7.1770   -2.2895   -0.0925 C.2       1 <0>         0.1295
     11 N2          8.4769   -2.4024   -0.1057 N.2       1 <0>        -0.2628
     12 N3          9.0564   -1.1275   -0.0976 N.pl3     1 <0>        -0.3530
     13 C9          8.0548   -0.2036   -0.0786 C.2       1 <0>         0.3696
     14 N4          8.0263    1.1363   -0.0638 N.2       1 <0>        -0.5601
     15 C10         6.9037    1.8122   -0.0459 C.2       1 <0>         0.6909
     16 N5          5.6820    1.2042   -0.0426 N.pl3     1 <0>        -0.3761
     17 N6          4.3634    1.6766   -0.0311 N.2       1 <0>        -0.3003
     18 N7          6.9590    3.1863   -0.0316 N.pl3     1 <0>        -0.8028
     19 C11        10.4923   -0.8370   -0.1068 C.3       1 <0>         0.1428
     20 C12        10.9797   -0.7205   -1.5524 C.3       1 <0>        -0.0838
     21 C13        12.4568   -0.4217   -1.5619 C.ar      1 <0>        -0.1494
     22 C14        12.8954    0.8897   -1.5460 C.ar      1 <0>        -0.0596
     23 C15        14.2483    1.1671   -1.5547 C.ar      1 <0>        -0.2003
     24 C16        15.1688    0.1270   -1.5793 C.ar      1 <0>         0.2212
     25 C17        14.7247   -1.1891   -1.5953 C.ar      1 <0>        -0.1998
     26 C18        13.3705   -1.4595   -1.5808 C.ar      1 <0>        -0.0595
     27 N8         16.5378    0.4040   -1.5886 N.pl3     1 <0>        -0.6099
     28 C19        17.5071   -0.6941   -1.6147 C.3       1 <0>         0.1258
     29 C20        17.8304   -1.0547   -3.0660 C.3       1 <0>         0.0542
     30 O2         18.4894    0.0463   -3.6949 O.3       1 <0>        -0.5691
     31 C21        17.0043    1.7927   -1.5723 C.3       1 <0>         0.1258
     32 C22        17.1808    2.2544   -0.1244 C.3       1 <0>         0.0546
     33 O3         18.2241    1.4978    0.4930 O.3       1 <0>        -0.5688
     34 H1         -0.8931    1.9736    0.0252 H         1 <0>         0.1593
     35 H2          1.6736    2.7966    0.0006 H         1 <0>         0.1598
     36 H3         -0.8667   -0.6456    0.0076 H         1 <0>         0.2141
     37 H4          6.4721   -3.1077   -0.0946 H         1 <0>         0.2018
     38 H5          7.8178    3.6373   -0.0348 H         1 <0>         0.4301
     39 H6          6.1392    3.7046   -0.0183 H         1 <0>         0.4261
     40 H7         10.6764    0.1019    0.4155 H         1 <0>         0.0997
     41 H8         11.0292   -1.6426    0.3939 H         1 <0>         0.1018
     42 H9         10.7956   -1.6593   -2.0747 H         1 <0>         0.0786
     43 H10        10.4428    0.0852   -2.0531 H         1 <0>         0.0744
     44 H11        12.1792    1.6978   -1.5272 H         1 <0>         0.1203
     45 H12        14.5902    2.1915   -1.5426 H         1 <0>         0.1202
     46 H13        15.4378   -2.0000   -1.6148 H         1 <0>         0.1207
     47 H14        13.0246   -2.4826   -1.5887 H         1 <0>         0.1213
     48 H15        18.4198   -0.3852   -1.1051 H         1 <0>         0.0924
     49 H16        17.0853   -1.5631   -1.1097 H         1 <0>         0.0867
     50 H17        18.4820   -1.9282   -3.0868 H         1 <0>         0.0521
     51 H18        16.9064   -1.2779   -3.5994 H         1 <0>         0.0471
     52 H19        18.7248   -0.1121   -4.6193 H         1 <0>         0.3779
     53 H20        17.9585    1.8615   -2.0945 H         1 <0>         0.0923
     54 H21        16.2713    2.4280   -2.0695 H         1 <0>         0.0863
     55 H22        17.4419    3.3125   -0.1097 H         1 <0>         0.0517
     56 H23        16.2498    2.1022    0.4216 H         1 <0>         0.0470
     57 H24        18.3914    1.7377    1.4147 H         1 <0>         0.3779
@<TRIPOS>BOND
     1    1    5 2
     2    1    2 1
     3    1   34 1
     4    2    3 2
     5    2   35 1
     6    3    4 1
     7    3    6 1
     8    4    5 1
     9    5   36 1
    10    6   17 2
    11    6    7 1
    12    7    8 2
    13    8   16 1
    14    8    9 1
    15    9   13 2
    16    9   10 1
    17   10   11 2
    18   10   37 1
    19   11   12 1
    20   12   13 1
    21   12   19 1
    22   13   14 1
    23   14   15 2
    24   15   16 1
    25   15   18 1
    26   16   17 1
    27   18   38 1
    28   18   39 1
    29   19   20 1
    30   19   40 1
    31   19   41 1
    32   20   21 1
    33   20   42 1
    34   20   43 1
    35   21   26 ar
    36   21   22 ar
    37   22   23 ar
    38   22   44 1
    39   23   24 ar
    40   23   45 1
    41   24   25 ar
    42   24   27 1
    43   25   26 ar
    44   25   46 1
    45   26   47 1
    46   27   28 1
    47   27   31 1
    48   28   29 1
    49   28   48 1
    50   28   49 1
    51   29   30 1
    52   29   50 1
    53   29   51 1
    54   30   52 1
    55   31   32 1
    56   31   53 1
    57   31   54 1
    58   32   33 1
    59   32   55 1
    60   32   56 1
    61   33   57 1
