@<TRIPOS>MOLECULE
CHEMBL576583
   63    68     0     0     0
SMALL
USER_CHARGES

@<TRIPOS>ATOM
      1 C1         -0.0173    1.4248    0.0099 C.3       1 <0>         0.0264
      2 O1          0.0021   -0.0041    0.0020 O.3       1 <0>        -0.3174
      3 C2          0.6058   -0.6071   -1.0557 C.ar      1 <0>         0.1328
      4 C3          1.1730    0.1607   -2.0624 C.ar      1 <0>        -0.2067
      5 C4          1.7865   -0.4547   -3.1363 C.ar      1 <0>        -0.0599
      6 C5          1.8352   -1.8346   -3.2086 C.ar      1 <0>        -0.1153
      7 C6          1.2702   -2.6021   -2.2068 C.ar      1 <0>        -0.0606
      8 C7          0.6609   -1.9915   -1.1277 C.ar      1 <0>        -0.1500
      9 C8          2.5046   -2.5033   -4.3815 C.3       1 <0>        -0.0868
     10 C9          3.9634   -2.7194   -4.0711 C.2       1 <0>         0.5051
     11 O2          4.4149   -2.3654   -3.0028 O.2       1 <0>        -0.4321
     12 N1          4.7662   -3.3062   -4.9808 N.am      1 <0>        -0.6466
     13 C10         6.1037   -3.5044   -4.6962 C.2       1 <0>         0.6512
     14 N2          6.5486   -3.1142   -3.5346 N.2       1 <0>        -0.4475
     15 C11         7.8495   -3.2712   -3.1742 C.2       1 <0>         0.3018
     16 C12         8.7708   -3.9014   -4.1333 C.2       1 <0>        -0.2674
     17 C13        10.0025   -3.9392   -3.5327 C.2       1 <0>         0.1580
     18 N3          9.8815   -3.3885   -2.3122 N.pl3     1 <0>        -0.3357
     19 N4          8.5576   -2.9836   -2.1053 N.2       1 <0>        -0.2476
     20 C14        10.9708   -3.2358   -1.3445 C.3       1 <0>         0.1272
     21 C15        11.0803   -1.7679   -0.9273 C.3       1 <0>        -0.1287
     22 C16        12.2179   -1.6084    0.0833 C.3       1 <0>        -0.0771
     23 C17        12.3257   -0.1625    0.4942 C.ar      1 <0>        -0.0851
     24 C18        13.1394    0.6994   -0.2171 C.ar      1 <0>        -0.1170
     25 C19        13.2383    2.0257    0.1598 C.ar      1 <0>        -0.1188
     26 C20        12.5232    2.4902    1.2478 C.ar      1 <0>        -0.1226
     27 C21        11.7088    1.6285    1.9586 C.ar      1 <0>        -0.1176
     28 C22        11.6066    0.3032    1.5791 C.ar      1 <0>        -0.1148
     29 C23         8.2170   -4.3219   -5.4265 C.2       1 <0>         0.4106
     30 N5          6.8835   -4.1039   -5.6481 N.pl3     1 <0>        -0.3751
     31 N6          6.6181   -4.5969   -6.9343 N.2       1 <0>        -0.2916
     32 C24         7.7525   -5.0743   -7.4074 C.2       1 <0>         0.3446
     33 N7          8.7184   -4.8991   -6.4953 N.2       1 <0>        -0.5123
     34 C25         7.9326   -5.6934   -8.7372 C.2       1 <0>         0.0434
     35 C26         6.9646   -5.8610   -9.6769 C.2       1 <0>        -0.1370
     36 C27         7.5750   -6.4885  -10.7810 C.2       1 <0>        -0.2189
     37 C28         8.8719   -6.6710  -10.4640 C.2       1 <0>        -0.0054
     38 O3          9.0857   -6.1842   -9.2309 O.3       1 <0>        -0.1534
     39 H1          1.0053    1.8021    0.0021 H         1 <0>         0.0564
     40 H2         -0.5445    1.7859   -0.8732 H         1 <0>         0.0561
     41 H3         -0.5275    1.7763    0.9067 H         1 <0>         0.1010
     42 H4          1.1347    1.2385   -2.0068 H         1 <0>         0.1290
     43 H5          2.2283    0.1425   -3.9203 H         1 <0>         0.1239
     44 H6          1.3092   -3.6798   -2.2657 H         1 <0>         0.1288
     45 H7          0.2237   -2.5913   -0.3432 H         1 <0>         0.1321
     46 H8          2.0276   -3.4646   -4.5726 H         1 <0>         0.1119
     47 H9          2.4108   -1.8695   -5.2632 H         1 <0>         0.1110
     48 H10         4.4051   -3.5895   -5.8353 H         1 <0>         0.4301
     49 H11        10.9083   -4.3401   -3.9631 H         1 <0>         0.2003
     50 H12        10.7657   -3.8487   -0.4668 H         1 <0>         0.0998
     51 H13        11.9084   -3.5551   -1.7995 H         1 <0>         0.1094
     52 H14        11.2855   -1.1550   -1.8050 H         1 <0>         0.0734
     53 H15        10.1427   -1.4485   -0.4723 H         1 <0>         0.0855
     54 H16        12.0127   -2.2212    0.9610 H         1 <0>         0.0789
     55 H17        13.1555   -1.9277   -0.3717 H         1 <0>         0.0774
     56 H18        13.6981    0.3365   -1.0671 H         1 <0>         0.1209
     57 H19        13.8746    2.6989   -0.3955 H         1 <0>         0.1219
     58 H20        12.6010    3.5262    1.5427 H         1 <0>         0.1215
     59 H21        11.1504    1.9914    2.8088 H         1 <0>         0.1225
     60 H22        10.9675   -0.3691    2.1321 H         1 <0>         0.1223
     61 H23         5.9279   -5.5699   -9.5932 H         1 <0>         0.1607
     62 H24         7.0943   -6.7702  -11.7061 H         1 <0>         0.1595
     63 H25         9.6167   -7.1288  -11.0981 H         1 <0>         0.2138
@<TRIPOS>BOND
     1    1    2 1
     2    1   39 1
     3    1   40 1
     4    1   41 1
     5    2    3 1
     6    3    8 ar
     7    3    4 ar
     8    4    5 ar
     9    4   42 1
    10    5    6 ar
    11    5   43 1
    12    6    7 ar
    13    6    9 1
    14    7    8 ar
    15    7   44 1
    16    8   45 1
    17    9   10 1
    18    9   46 1
    19    9   47 1
    20   10   11 2
    21   10   12 am
    22   12   13 1
    23   12   48 1
    24   13   30 1
    25   13   14 2
    26   14   15 1
    27   15   19 2
    28   15   16 1
    29   16   17 2
    30   16   29 1
    31   17   18 1
    32   17   49 1
    33   18   19 1
    34   18   20 1
    35   20   21 1
    36   20   50 1
    37   20   51 1
    38   21   22 1
    39   21   52 1
    40   21   53 1
    41   22   23 1
    42   22   54 1
    43   22   55 1
    44   23   28 ar
    45   23   24 ar
    46   24   25 ar
    47   24   56 1
    48   25   26 ar
    49   25   57 1
    50   26   27 ar
    51   26   58 1
    52   27   28 ar
    53   27   59 1
    54   28   60 1
    55   29   33 2
    56   29   30 1
    57   30   31 1
    58   31   32 2
    59   32   33 1
    60   32   34 1
    61   34   38 1
    62   34   35 2
    63   35   36 1
    64   35   61 1
    65   36   37 2
    66   36   62 1
    67   37   38 1
    68   37   63 1
