@<TRIPOS>MOLECULE
CHEMBL1222303
   37    40     0     0     0
SMALL
USER_CHARGES

@<TRIPOS>ATOM
      1 C1         -0.0017    1.4924    0.1950 C.3       1 <0>        -0.0743
      2 C2          0.0063   -0.0067    0.0410 C.2       1 <0>         0.2972
      3 N1         -1.0332   -0.7851    0.1299 N.2       1 <0>        -0.5415
      4 C3         -0.6667   -2.0679   -0.0606 C.2       1 <0>         0.3509
      5 N2          0.6295   -2.1044   -0.2745 N.2       1 <0>        -0.3163
      6 O1          1.0834   -0.7604   -0.2162 O.3       1 <0>        -0.1048
      7 C4         -1.5682   -3.2343   -0.0332 C.2       1 <0>        -0.2332
      8 C5         -1.2679   -4.5922   -0.1054 C.2       1 <0>         0.2023
      9 N3         -2.3006   -5.4174   -0.0549 N.2       1 <0>        -0.5456
     10 C6         -3.5312   -4.9687    0.0569 C.2       1 <0>         0.2497
     11 S1         -3.3468   -3.2974    0.1096 S.3       1 <0>         0.3333
     12 N4         -4.7067   -5.7022    0.1219 N.am      1 <0>        -0.6045
     13 C7         -5.8908   -5.0689    0.2367 C.2       1 <0>         0.5455
     14 O2         -5.9285   -3.8576    0.2832 O.2       1 <0>        -0.4940
     15 C8         -7.1679   -5.8658    0.3073 C.3       1 <0>        -0.1956
     16 C9         -8.1242   -5.7746   -0.8835 C.3       1 <0>        -0.1464
     17 C10        -8.4793   -5.0886    0.4372 C.3       1 <0>        -0.1391
     18 C11         0.1241   -5.0830   -0.2317 C.ar      1 <0>        -0.0378
     19 C12         1.1268   -4.5631    0.5865 C.ar      1 <0>        -0.0654
     20 C13         2.4213   -5.0247    0.4645 C.ar      1 <0>        -0.1176
     21 C14         2.7257   -6.0008   -0.4675 C.ar      1 <0>        -0.1033
     22 C15         1.7355   -6.5203   -1.2820 C.ar      1 <0>        -0.1265
     23 C16         0.4361   -6.0710   -1.1654 C.ar      1 <0>        -0.0786
     24 H1          1.0101    1.8764    0.0652 H         1 <0>         0.1001
     25 H2         -0.6564    1.9315   -0.5577 H         1 <0>         0.1104
     26 H3         -0.3647    1.7535    1.1891 H         1 <0>         0.1104
     27 H4         -4.6765   -6.6711    0.0847 H         1 <0>         0.4296
     28 H5         -7.0968   -6.8229    0.8240 H         1 <0>         0.1363
     29 H6         -7.8297   -5.1382   -1.7180 H         1 <0>         0.1039
     30 H7         -8.6824   -6.6720   -1.1505 H         1 <0>         0.1128
     31 H8         -9.2712   -5.5346    1.0390 H         1 <0>         0.1115
     32 H9         -8.4184   -4.0008    0.4716 H         1 <0>         0.1130
     33 H10         0.8905   -3.8006    1.3139 H         1 <0>         0.1163
     34 H11         3.1987   -4.6229    1.0975 H         1 <0>         0.1258
     35 H12         3.7406   -6.3584   -0.5598 H         1 <0>         0.1249
     36 H13         1.9792   -7.2822   -2.0077 H         1 <0>         0.1262
     37 H14        -0.3369   -6.4803   -1.7990 H         1 <0>         0.1243
@<TRIPOS>BOND
     1    1    2 1
     2    1   24 1
     3    1   25 1
     4    1   26 1
     5    2    6 1
     6    2    3 2
     7    3    4 1
     8    4    5 2
     9    4    7 1
    10    5    6 1
    11    7   11 1
    12    7    8 2
    13    8    9 1
    14    8   18 1
    15    9   10 2
    16   10   11 1
    17   10   12 1
    18   12   13 am
    19   12   27 1
    20   13   14 2
    21   13   15 1
    22   15   17 1
    23   15   16 1
    24   15   28 1
    25   16   17 1
    26   16   29 1
    27   16   30 1
    28   17   31 1
    29   17   32 1
    30   18   23 ar
    31   18   19 ar
    32   19   20 ar
    33   19   33 1
    34   20   21 ar
    35   20   34 1
    36   21   22 ar
    37   21   35 1
    38   22   23 ar
    39   22   36 1
    40   23   37 1
