@<TRIPOS>MOLECULE
CHEMBL480570
   62    66     0     0     0
SMALL
USER_CHARGES

@<TRIPOS>ATOM
      1 C1          0.0886   -2.8476   -2.5118 C.3       1 <0>        -0.1059
      2 C2          0.0538   -2.0919   -1.2084 C.ar      1 <0>         0.1255
      3 C3          0.1110   -0.6986   -1.2070 C.ar      1 <0>         0.1294
      4 N1          0.0800   -0.0376   -0.0543 N.ar      1 <0>        -0.3912
      5 C4         -0.0047   -0.7020    1.0834 C.ar      1 <0>         0.0478
      6 C5         -0.0612   -2.0851    1.0777 C.ar      1 <0>         0.0809
      7 N2         -0.0362   -2.7473   -0.0663 N.ar      1 <0>        -0.4371
      8 C6          0.2067    0.0439   -2.4884 C.2       1 <0>         0.3411
      9 N3          0.3938    1.3617   -2.6045 N.2       1 <0>        -0.5133
     10 C7          0.4316    1.6929   -3.8862 C.2       1 <0>         0.3696
     11 C8          0.5994    2.9082   -4.5713 C.2       1 <0>        -0.2914
     12 C9          0.5866    2.8927   -5.9527 C.2       1 <0>         0.4548
     13 N4          0.4174    1.7397   -6.6116 N.2       1 <0>        -0.6055
     14 C10         0.2598    0.5990   -5.9780 C.2       1 <0>         0.6873
     15 N5          0.2623    0.5440   -4.6173 N.pl3     1 <0>        -0.3782
     16 N6          0.1260   -0.4954   -3.6885 N.2       1 <0>        -0.3192
     17 N7          0.0895   -0.5576   -6.7007 N.pl3     1 <0>        -0.8037
     18 N8          0.7492    4.0756   -6.6592 N.pl3     1 <0>        -0.5939
     19 C11         0.9342    5.3387   -5.9404 C.3       1 <0>         0.0840
     20 C12         0.7360    4.0617   -8.1241 C.3       1 <0>         0.1087
     21 C13        -0.6967    4.2597   -8.6231 C.3       1 <0>        -0.0315
     22 N9         -0.7099    4.2457  -10.0920 N.4       1 <0>        -0.3754
     23 C14         0.0507    5.3954  -10.5975 C.3       1 <0>        -0.0303
     24 C15         0.1346    5.3190  -12.1256 C.3       1 <0>         0.1200
     25 N10        -1.2306    5.2105  -12.6628 N.pl3     1 <0>        -0.6721
     26 C16        -2.1198    4.1856  -12.0944 C.3       1 <0>         0.1198
     27 C17        -2.0973    4.3155  -10.5679 C.3       1 <0>        -0.0223
     28 C18        -1.6712    6.0588  -13.6855 C.ar      1 <0>         0.1004
     29 C19        -1.5097    5.6889  -15.0135 C.ar      1 <0>        -0.0568
     30 C20        -1.9451    6.5274  -16.0216 C.ar      1 <0>        -0.1537
     31 C21        -2.5422    7.7369  -15.7089 C.ar      1 <0>         0.1467
     32 C22        -2.7047    8.1097  -14.3853 C.ar      1 <0>        -0.1868
     33 C23        -2.2765    7.2709  -13.3726 C.ar      1 <0>         0.1274
     34 F1         -2.4407    7.6314  -12.0810 F         1 <0>        -0.1300
     35 F2         -2.9665    8.5548  -16.6969 F         1 <0>        -0.1205
     36 H1         -0.9153   -2.8896   -2.9343 H         1 <0>         0.0880
     37 H2          0.7551   -2.3394   -3.2087 H         1 <0>         0.0950
     38 H3          0.4511   -3.8602   -2.3352 H         1 <0>         0.0845
     39 H4         -0.0295   -0.1654    2.0203 H         1 <0>         0.1826
     40 H5         -0.1305   -2.6248    2.0107 H         1 <0>         0.1818
     41 H6          0.7350    3.8331   -4.0304 H         1 <0>         0.1626
     42 H7          0.0863   -0.5276   -7.6703 H         1 <0>         0.4267
     43 H8         -0.0275   -1.4038   -6.2413 H         1 <0>         0.4289
     44 H9          1.9974    5.5074   -5.7699 H         1 <0>         0.0706
     45 H10         0.5269    6.1574   -6.5337 H         1 <0>         0.0778
     46 H11         0.4157    5.2910   -4.9828 H         1 <0>         0.0881
     47 H12         1.3665    4.8670   -8.5009 H         1 <0>         0.0981
     48 H13         1.1164    3.1048   -8.4818 H         1 <0>         0.1081
     49 H14        -1.3272    3.4543   -8.2464 H         1 <0>         0.1335
     50 H15        -1.0770    5.2165   -8.2655 H         1 <0>         0.1293
     51 H16        -0.4503    6.3188  -10.3068 H         1 <0>         0.1331
     52 H17         1.0562    5.3793  -10.1770 H         1 <0>         0.1387
     53 H18         0.6096    6.2209  -12.5118 H         1 <0>         0.1167
     54 H19         0.7137    4.4429  -12.4172 H         1 <0>         0.0845
     55 H20        -3.1352    4.3381  -12.4601 H         1 <0>         0.1165
     56 H21        -1.7683    3.1950  -12.3829 H         1 <0>         0.0842
     57 H22        -2.6746    3.5037  -10.1255 H         1 <0>         0.1376
     58 H23        -2.5332    5.2716  -10.2780 H         1 <0>         0.1316
     59 H24        -1.0435    4.7460  -15.2587 H         1 <0>         0.1474
     60 H25        -1.8193    6.2393  -17.0548 H         1 <0>         0.1516
     61 H26        -3.1700    9.0539  -14.1437 H         1 <0>         0.1550
     62 H27        -0.2848    3.3925  -10.4228 H         1 <0>         0.4231
@<TRIPOS>BOND
     1    1    2 1
     2    1   36 1
     3    1   37 1
     4    1   38 1
     5    2    7 ar
     6    2    3 ar
     7    3    4 ar
     8    3    8 1
     9    4    5 ar
    10    5    6 ar
    11    5   39 1
    12    6    7 ar
    13    6   40 1
    14    8   16 2
    15    8    9 1
    16    9   10 2
    17   10   15 1
    18   10   11 1
    19   11   12 2
    20   11   41 1
    21   12   13 1
    22   12   18 1
    23   13   14 2
    24   14   15 1
    25   14   17 1
    26   15   16 1
    27   17   42 1
    28   17   43 1
    29   18   19 1
    30   18   20 1
    31   19   44 1
    32   19   45 1
    33   19   46 1
    34   20   21 1
    35   20   47 1
    36   20   48 1
    37   21   22 1
    38   21   49 1
    39   21   50 1
    40   22   27 1
    41   22   23 1
    42   22   62 1
    43   23   24 1
    44   23   51 1
    45   23   52 1
    46   24   25 1
    47   24   53 1
    48   24   54 1
    49   25   26 1
    50   25   28 1
    51   26   27 1
    52   26   55 1
    53   26   56 1
    54   27   57 1
    55   27   58 1
    56   28   33 ar
    57   28   29 ar
    58   29   30 ar
    59   29   59 1
    60   30   31 ar
    61   30   60 1
    62   31   32 ar
    63   31   35 1
    64   32   33 ar
    65   32   61 1
    66   33   34 1
