@<TRIPOS>MOLECULE
CHEMBL336608
   79    84     0     0     0
SMALL
USER_CHARGES

@<TRIPOS>ATOM
      1 C1          2.5088    2.3165   -1.1248 C.3       1 <0>        -0.1676
      2 C2          2.2161    0.8590   -0.7630 C.3       1 <0>         0.1136
      3 N1          3.1762    0.4039    0.2456 N.am      1 <0>        -0.7280
      4 C3          3.1106   -0.8565    0.7182 C.2       1 <0>         0.5157
      5 O1          2.2567   -1.6141    0.3085 O.2       1 <0>        -0.5029
      6 C4          4.0983   -1.3246    1.7557 C.3       1 <0>         0.0322
      7 H1          4.0783   -0.6691    2.6263 H         1 <0>         0.1205
      8 C5          5.5265   -1.3940    1.1575 C.3       1 <0>         0.0504
      9 H2          5.4992   -1.7417    0.1248 H         1 <0>         0.0941
     10 C6          6.2115   -2.4371    2.0737 C.3       1 <0>         0.0837
     11 H3          6.8448   -3.1027    1.4871 H         1 <0>         0.0897
     12 C7          5.0395   -3.2192    2.6978 C.3       1 <0>         0.3173
     13 H4          5.0378   -3.0838    3.7794 H         1 <0>         0.1280
     14 O2          3.8237   -2.6890    2.1400 O.3       1 <0>        -0.3267
     15 N2          5.1621   -4.6427    2.3744 N.pl3     1 <0>        -0.4792
     16 C8          4.5649   -5.2880    1.3310 C.2       1 <0>         0.2450
     17 N3          4.8908   -6.5474    1.3426 N.2       1 <0>        -0.4480
     18 C9          5.7155   -6.7904    2.3910 C.ar      1 <0>        -0.1512
     19 C10         5.9033   -5.5704    3.0615 C.ar      1 <0>         0.3567
     20 N4          6.6849   -5.5355    4.1361 N.ar      1 <0>        -0.6105
     21 C11         7.2824   -6.6336    4.5698 C.ar      1 <0>         0.6321
     22 N5          7.1352   -7.8057    3.9657 N.ar      1 <0>        -0.6168
     23 C12         6.3661   -7.9320    2.8900 C.ar      1 <0>         0.5431
     24 N6          6.2199   -9.1582    2.2658 N.pl3     1 <0>        -0.6885
     25 C13         6.9052  -10.3380    2.7992 C.3       1 <0>         0.1402
     26 C14         6.5783  -11.5541    1.9303 C.3       1 <0>        -0.0207
     27 C15         7.3782  -12.7400    2.4044 C.ar      1 <0>        -0.0703
     28 C16         8.1446  -13.4601    1.5072 C.ar      1 <0>        -0.1109
     29 C17         8.8784  -14.5478    1.9421 C.ar      1 <0>        -0.1185
     30 C18         8.8461  -14.9153    3.2744 C.ar      1 <0>        -0.1205
     31 C19         8.0804  -14.1947    4.1717 C.ar      1 <0>        -0.1157
     32 C20         7.3500  -13.1043    3.7376 C.ar      1 <0>        -0.1085
     33 C21         5.1076  -11.8658    2.0353 C.ar      1 <0>        -0.0774
     34 C22         4.5182  -12.0077    3.2777 C.ar      1 <0>        -0.1074
     35 C23         3.1691  -12.2936    3.3740 C.ar      1 <0>        -0.1166
     36 C24         2.4095  -12.4372    2.2281 C.ar      1 <0>        -0.1194
     37 C25         2.9987  -12.2944    0.9858 C.ar      1 <0>        -0.1160
     38 C26         4.3468  -12.0043    0.8895 C.ar      1 <0>        -0.1132
     39 N7          8.0896   -6.5567    5.6929 N.pl3     1 <0>        -0.6961
     40 C27         8.7630   -7.7571    6.1945 C.3       1 <0>         0.1507
     41 C28         9.5853   -7.4001    7.4344 C.3       1 <0>        -0.0460
     42 C29        10.2780   -8.6350    7.9505 C.2       1 <0>         0.0057
     43 C30        11.6001   -8.7675    8.1696 C.2       1 <0>        -0.0495
     44 N8         11.7990  -10.0395    8.6345 N.pl3     1 <0>        -0.5706
     45 H5         12.6491  -10.4353    8.8826 H         1 <0>         0.4212
     46 C31        10.5906  -10.6404    8.6833 C.2       1 <0>         0.1875
     47 N9          9.6851   -9.7928    8.2775 N.2       1 <0>        -0.4845
     48 O3          6.9778   -1.7850    3.0883 O.3       1 <0>        -0.5319
     49 O4          6.1799   -0.1265    1.2492 O.3       1 <0>        -0.5371
     50 H6          3.5199    2.3958   -1.5240 H         1 <0>         0.0635
     51 H7          1.7944    2.6551   -1.8752 H         1 <0>         0.0788
     52 H8          2.4205    2.9370   -0.2331 H         1 <0>         0.0643
     53 H9          1.2049    0.7797   -0.3639 H         1 <0>         0.0727
     54 H10         2.3043    0.2385   -1.6548 H         1 <0>         0.0725
     55 H11         3.8592    1.0098    0.5732 H         1 <0>         0.3976
     56 H12         3.9169   -4.8222    0.6033 H         1 <0>         0.2190
     57 H13         5.6637   -9.2366    1.4750 H         1 <0>         0.4190
     58 H14         7.9816  -10.1664    2.7938 H         1 <0>         0.0756
     59 H15         6.5716  -10.5211    3.8207 H         1 <0>         0.0749
     60 H16         6.8305  -11.3373    0.8922 H         1 <0>         0.0931
     61 H17         8.1699  -13.1730    0.4664 H         1 <0>         0.1214
     62 H18         9.4767  -15.1108    1.2410 H         1 <0>         0.1218
     63 H19         9.4188  -15.7656    3.6140 H         1 <0>         0.1206
     64 H20         8.0549  -14.4820    5.2125 H         1 <0>         0.1224
     65 H21         6.7547  -12.5391    4.4394 H         1 <0>         0.1232
     66 H22         5.1117  -11.8955    4.1729 H         1 <0>         0.1209
     67 H23         2.7088  -12.4051    4.3446 H         1 <0>         0.1209
     68 H24         1.3556  -12.6612    2.3034 H         1 <0>         0.1205
     69 H25         2.4052  -12.4069    0.0905 H         1 <0>         0.1219
     70 H26         4.8064  -11.8891   -0.0810 H         1 <0>         0.1212
     71 H27         8.2090   -5.7080    6.1472 H         1 <0>         0.4133
     72 H28         8.0184   -8.5088    6.4564 H         1 <0>         0.0757
     73 H29         9.4229   -8.1530    5.4225 H         1 <0>         0.0643
     74 H30        10.3299   -6.6484    7.1725 H         1 <0>         0.0804
     75 H31         8.9254   -7.0043    8.2064 H         1 <0>         0.0813
     76 H32        12.3579   -8.0149    8.0091 H         1 <0>         0.1760
     77 H33        10.4040  -11.6533    9.0082 H         1 <0>         0.2076
     78 H34         7.6940   -1.2325    2.7463 H         1 <0>         0.3950
     79 H35         5.7352    0.5814    0.7632 H         1 <0>         0.3832
@<TRIPOS>BOND
     1    1    2 1
     2    1   50 1
     3    1   51 1
     4    1   52 1
     5    2    3 1
     6    2   53 1
     7    2   54 1
     8    3    4 am
     9    3   55 1
    10    4    5 2
    11    4    6 1
    12    6    7 1
    13    6   14 1
    14    6    8 1
    15    8    9 1
    16    8   10 1
    17    8   49 1
    18   10   11 1
    19   10   12 1
    20   10   48 1
    21   12   13 1
    22   12   14 1
    23   12   15 1
    24   15   19 1
    25   15   16 1
    26   16   17 2
    27   16   56 1
    28   17   18 1
    29   18   23 ar
    30   18   19 ar
    31   19   20 ar
    32   20   21 ar
    33   21   22 ar
    34   21   39 1
    35   22   23 ar
    36   23   24 1
    37   24   25 1
    38   24   57 1
    39   25   26 1
    40   25   58 1
    41   25   59 1
    42   26   27 1
    43   26   33 1
    44   26   60 1
    45   27   32 ar
    46   27   28 ar
    47   28   29 ar
    48   28   61 1
    49   29   30 ar
    50   29   62 1
    51   30   31 ar
    52   30   63 1
    53   31   32 ar
    54   31   64 1
    55   32   65 1
    56   33   38 ar
    57   33   34 ar
    58   34   35 ar
    59   34   66 1
    60   35   36 ar
    61   35   67 1
    62   36   37 ar
    63   36   68 1
    64   37   38 ar
    65   37   69 1
    66   38   70 1
    67   39   40 1
    68   39   71 1
    69   40   41 1
    70   40   72 1
    71   40   73 1
    72   41   42 1
    73   41   74 1
    74   41   75 1
    75   42   47 1
    76   42   43 2
    77   43   44 1
    78   43   76 1
    79   44   45 1
    80   44   46 1
    81   46   47 2
    82   46   77 1
    83   48   78 1
    84   49   79 1
