@<TRIPOS>MOLECULE
CHEMBL220445
   28    29     0     0     0
SMALL
USER_CHARGES

@<TRIPOS>ATOM
      1 C1         -0.0187    1.5258    0.0104 C.3       1 <0>        -0.1405
      2 C2          0.0021   -0.0041    0.0020 C.3       1 <0>        -0.1126
      3 S1         -1.6997   -0.6320    0.0149 S.3       1 <0>         0.0256
      4 C3         -1.5080   -2.3834    0.0037 C.ar      1 <0>         0.3803
      5 N1         -2.5808   -3.1701    0.0042 N.ar      1 <0>        -0.5710
      6 C4         -2.4357   -4.4916   -0.0043 C.ar      1 <0>         0.4597
      7 N2         -1.2179   -5.0267   -0.0132 N.ar      1 <0>        -0.6079
      8 C5         -0.1461   -4.2401   -0.0137 C.ar      1 <0>         0.6164
      9 N3         -0.2910   -2.9190   -0.0108 N.ar      1 <0>        -0.6203
     10 N4          1.1174   -4.7956   -0.0226 N.pl3     1 <0>        -0.8029
     11 C6         -3.6312   -5.3688   -0.0032 C.ar      1 <0>        -0.0607
     12 C7         -4.9085   -4.8107    0.0009 C.ar      1 <0>        -0.0593
     13 C8         -6.0175   -5.6321    0.0019 C.ar      1 <0>        -0.1325
     14 C9         -5.8633   -7.0068   -0.0011 C.ar      1 <0>        -0.0896
     15 C10        -4.5982   -7.5662   -0.0051 C.ar      1 <0>        -0.1339
     16 C11        -3.4820   -6.7547   -0.0120 C.ar      1 <0>        -0.0610
     17 H1          1.0039    1.9031    0.0027 H         1 <0>         0.0810
     18 H2         -0.5459    1.8868   -0.8726 H         1 <0>         0.0679
     19 H3         -0.5289    1.8773    0.9072 H         1 <0>         0.0679
     20 H4          0.5123   -0.3556   -0.8948 H         1 <0>         0.0949
     21 H5          0.5293   -0.3651    0.8851 H         1 <0>         0.0949
     22 H6          1.2233   -5.7598   -0.0284 H         1 <0>         0.4196
     23 H7          1.8995   -4.2218   -0.0230 H         1 <0>         0.4186
     24 H8         -5.0300   -3.7376    0.0036 H         1 <0>         0.1397
     25 H9         -7.0076   -5.2008    0.0055 H         1 <0>         0.1311
     26 H10        -6.7340   -7.6457    0.0001 H         1 <0>         0.1278
     27 H11        -4.4838   -8.6402   -0.0071 H         1 <0>         0.1300
     28 H12        -2.4947   -7.1926   -0.0201 H         1 <0>         0.1368
@<TRIPOS>BOND
     1    1    2 1
     2    1   17 1
     3    1   18 1
     4    1   19 1
     5    2    3 1
     6    2   20 1
     7    2   21 1
     8    3    4 1
     9    4    9 ar
    10    4    5 ar
    11    5    6 ar
    12    6    7 ar
    13    6   11 1
    14    7    8 ar
    15    8    9 ar
    16    8   10 1
    17   10   22 1
    18   10   23 1
    19   11   16 ar
    20   11   12 ar
    21   12   13 ar
    22   12   24 1
    23   13   14 ar
    24   13   25 1
    25   14   15 ar
    26   14   26 1
    27   15   16 ar
    28   15   27 1
    29   16   28 1
