@<TRIPOS>MOLECULE
CHEMBL408624
   31    33     0     0     0
SMALL
USER_CHARGES

@<TRIPOS>ATOM
      1 C1         -0.0187    1.5258    0.0104 C.3       1 <0>        -0.1443
      2 C2          0.0021   -0.0041    0.0020 C.3       1 <0>        -0.0544
      3 C3          0.7074   -0.4901   -1.2379 C.ar      1 <0>         0.3263
      4 N1         -0.0067   -0.6951   -2.3158 N.ar      1 <0>        -0.4869
      5 C4          0.5597   -1.1308   -3.4635 C.ar      1 <0>         0.1674
      6 C5         -0.0535   -1.4129   -4.7460 C.2       1 <0>        -0.1518
      7 C6          0.7155   -1.8423   -5.7626 C.2       1 <0>        -0.1274
      8 S1          2.3506   -1.8986   -5.0530 S.3       1 <0>         0.1342
      9 C7          1.9575   -1.3459   -3.4166 C.ar      1 <0>        -0.2229
     10 C8          2.6743   -1.1166   -2.2535 C.ar      1 <0>         0.2816
     11 N2          2.0118   -0.6806   -1.1791 N.ar      1 <0>        -0.4885
     12 C9          4.1389   -1.3421   -2.2050 C.ar      1 <0>         0.1543
     13 C10         4.9131   -0.6561   -1.2713 C.ar      1 <0>        -0.1250
     14 C11         6.2794   -0.8774   -1.2377 C.ar      1 <0>        -0.0745
     15 C12         6.8265   -1.7784   -2.1399 C.ar      1 <0>        -0.1532
     16 C13         5.9984   -2.4247   -3.0400 C.ar      1 <0>         0.1334
     17 N3          4.7009   -2.1995   -3.0473 N.ar      1 <0>        -0.4625
     18 C14         6.5883   -3.4038   -4.0221 C.3       1 <0>        -0.1056
     19 H1          1.0039    1.9031    0.0027 H         1 <0>         0.0581
     20 H2         -0.5459    1.8868   -0.8726 H         1 <0>         0.0582
     21 H3         -0.5289    1.8773    0.9072 H         1 <0>         0.0701
     22 H4          0.5293   -0.3651    0.8851 H         1 <0>         0.0932
     23 H5         -1.0205   -0.3814    0.0098 H         1 <0>         0.0929
     24 H6         -1.1164   -1.2802   -4.8839 H         1 <0>         0.1523
     25 H7          0.4144   -2.0932   -6.7690 H         1 <0>         0.2028
     26 H8          4.4539    0.0388   -0.5837 H         1 <0>         0.1465
     27 H9          6.9052   -0.3602   -0.5256 H         1 <0>         0.1437
     28 H10         7.8889   -1.9730   -2.1397 H         1 <0>         0.1417
     29 H11         6.5909   -4.4016   -3.5834 H         1 <0>         0.0812
     30 H12         5.9904   -3.4091   -4.9335 H         1 <0>         0.0804
     31 H13         7.6103   -3.1088   -4.2598 H         1 <0>         0.0787
@<TRIPOS>BOND
     1    1    2 1
     2    1   19 1
     3    1   20 1
     4    1   21 1
     5    2    3 1
     6    2   22 1
     7    2   23 1
     8    3   11 ar
     9    3    4 ar
    10    4    5 ar
    11    5    9 ar
    12    5    6 1
    13    6    7 2
    14    6   24 1
    15    7    8 1
    16    7   25 1
    17    8    9 1
    18    9   10 ar
    19   10   11 ar
    20   10   12 1
    21   12   17 ar
    22   12   13 ar
    23   13   14 ar
    24   13   26 1
    25   14   15 ar
    26   14   27 1
    27   15   16 ar
    28   15   28 1
    29   16   17 ar
    30   16   18 1
    31   18   29 1
    32   18   30 1
    33   18   31 1
