@<TRIPOS>MOLECULE
CHEMBL469879
   59    65     0     0     0
SMALL
USER_CHARGES

@<TRIPOS>ATOM
      1 C1         -0.0167    1.3790    0.0096 C.ar      1 <0>        -0.1161
      2 C2          1.1687    2.0919    0.0021 C.ar      1 <0>        -0.1152
      3 C3          2.3774    1.4258   -0.0135 C.ar      1 <0>        -0.1094
      4 C4          2.4022    0.0327   -0.0212 C.ar      1 <0>        -0.0431
      5 C5          1.2051   -0.6804   -0.0131 C.ar      1 <0>        -0.1101
      6 C6          0.0021   -0.0041    0.0020 C.ar      1 <0>        -0.1160
      7 C7          3.6987   -0.6889   -0.0385 C.ar      1 <0>        -0.0975
      8 C8          3.7366   -2.0845   -0.0522 C.ar      1 <0>        -0.0638
      9 C9          4.9721   -2.7159   -0.0702 C.ar      1 <0>        -0.1248
     10 C10         6.1212   -1.9528   -0.0763 C.ar      1 <0>         0.1428
     11 N1          6.0493   -0.6298   -0.0597 N.ar      1 <0>        -0.4818
     12 C11         4.9022    0.0127   -0.0471 C.ar      1 <0>         0.1163
     13 C12         7.4875   -2.5916   -0.1085 C.3       1 <0>        -0.0633
     14 C13         7.3858   -4.0626    0.2947 C.3       1 <0>         0.0537
     15 N2          6.3293   -4.6972   -0.5093 N.3       1 <0>        -0.5274
     16 C14         5.0105   -4.2205   -0.0798 C.3       1 <0>         0.0929
     17 C15         6.4124   -6.1615   -0.4263 C.3       1 <0>         0.0400
     18 C16         5.4706   -6.7851   -1.4583 C.3       1 <0>         0.1412
     19 N3          5.5535   -8.2454   -1.3756 N.pl3     1 <0>        -0.3554
     20 C17         6.4168   -9.0370   -2.0721 C.2       1 <0>         0.3732
     21 C18         6.1477  -10.3585   -1.6847 C.2       1 <0>        -0.2673
     22 C19         5.1037  -10.3142   -0.7433 C.2       1 <0>         0.1328
     23 N4          4.7634   -9.0675   -0.5626 N.2       1 <0>        -0.2647
     24 C20         6.9429  -11.4274   -2.2900 C.2       1 <0>         0.4063
     25 N5          6.9678  -12.7386   -2.1705 N.2       1 <0>        -0.5160
     26 C21         7.9128  -13.2454   -2.9726 C.2       1 <0>         0.3508
     27 N6          8.5082  -12.2611   -3.6193 N.2       1 <0>        -0.2992
     28 N7          7.9034  -11.0693   -3.2000 N.pl3     1 <0>        -0.3763
     29 C22         8.0906   -9.7541   -3.5119 C.2       1 <0>         0.6926
     30 N8          7.3802   -8.7946   -2.9717 N.2       1 <0>        -0.5600
     31 N9          9.0614   -9.4231   -4.4282 N.pl3     1 <0>        -0.8014
     32 C23         8.2377  -14.6805   -3.1116 C.2       1 <0>         0.0420
     33 C24         9.1976  -15.2067   -3.9177 C.2       1 <0>        -0.1369
     34 C25         9.1605  -16.6033   -3.7346 C.2       1 <0>        -0.2199
     35 C26         8.1899  -16.8579   -2.8352 C.2       1 <0>        -0.0040
     36 O1          7.6380  -15.6937   -2.4572 O.3       1 <0>        -0.1522
     37 H1         -0.9603    1.9042    0.0260 H         1 <0>         0.1246
     38 H2          1.1483    3.1717    0.0081 H         1 <0>         0.1266
     39 H3          3.3023    1.9834   -0.0200 H         1 <0>         0.1265
     40 H4          1.2186   -1.7603   -0.0191 H         1 <0>         0.1240
     41 H5         -0.9264   -0.5558    0.0083 H         1 <0>         0.1258
     42 H6          2.8232   -2.6607   -0.0486 H         1 <0>         0.1376
     43 H7          4.8929    1.0926   -0.0391 H         1 <0>         0.1588
     44 H8          7.8967   -2.5202   -1.1163 H         1 <0>         0.0951
     45 H9          8.1469   -2.0709    0.5858 H         1 <0>         0.0921
     46 H10         8.3372   -4.5602    0.1071 H         1 <0>         0.0894
     47 H11         7.1341   -4.1354    1.3528 H         1 <0>         0.0454
     48 H12         4.8019   -4.5926    0.9232 H         1 <0>         0.0567
     49 H13         4.2508   -4.5959   -0.7654 H         1 <0>         0.0930
     50 H14         7.4352   -6.4794   -0.6290 H         1 <0>         0.0872
     51 H15         6.1224   -6.4858    0.5731 H         1 <0>         0.0498
     52 H16         4.4479   -6.4671   -1.2557 H         1 <0>         0.1006
     53 H17         5.7606   -6.4607   -2.4577 H         1 <0>         0.1105
     54 H18         4.6615  -11.1673   -0.2503 H         1 <0>         0.2025
     55 H19         9.5976  -10.1189   -4.8395 H         1 <0>         0.4264
     56 H20         9.2099   -8.4937   -4.6632 H         1 <0>         0.4310
     57 H21         9.8602  -14.6600   -4.5722 H         1 <0>         0.1600
     58 H22         9.7906  -17.3319   -4.2231 H         1 <0>         0.1595
     59 H23         7.9059  -17.8357   -2.4751 H         1 <0>         0.2142
@<TRIPOS>BOND
     1    1    6 ar
     2    1    2 ar
     3    1   37 1
     4    2    3 ar
     5    2   38 1
     6    3    4 ar
     7    3   39 1
     8    4    5 ar
     9    4    7 1
    10    5    6 ar
    11    5   40 1
    12    6   41 1
    13    7   12 ar
    14    7    8 ar
    15    8    9 ar
    16    8   42 1
    17    9   16 1
    18    9   10 ar
    19   10   11 ar
    20   10   13 1
    21   11   12 ar
    22   12   43 1
    23   13   14 1
    24   13   44 1
    25   13   45 1
    26   14   15 1
    27   14   46 1
    28   14   47 1
    29   15   16 1
    30   15   17 1
    31   16   48 1
    32   16   49 1
    33   17   18 1
    34   17   50 1
    35   17   51 1
    36   18   19 1
    37   18   52 1
    38   18   53 1
    39   19   23 1
    40   19   20 1
    41   20   30 1
    42   20   21 2
    43   21   22 1
    44   21   24 1
    45   22   23 2
    46   22   54 1
    47   24   28 1
    48   24   25 2
    49   25   26 1
    50   26   27 2
    51   26   32 1
    52   27   28 1
    53   28   29 1
    54   29   30 2
    55   29   31 1
    56   31   55 1
    57   31   56 1
    58   32   36 1
    59   32   33 2
    60   33   34 1
    61   33   57 1
    62   34   35 2
    63   34   58 1
    64   35   36 1
    65   35   59 1
