@<TRIPOS>MOLECULE
CHEMBL1087727
   55    59     0     0     0
SMALL
USER_CHARGES

@<TRIPOS>ATOM
      1 C1         -0.0167    1.3793    0.0096 C.ar      1 <0>        -0.0930
      2 C2          1.1685    2.0929    0.0021 C.ar      1 <0>        -0.1341
      3 C3          2.3774    1.4279   -0.0130 C.ar      1 <0>        -0.0662
      4 C4          2.4029    0.0333   -0.0207 C.ar      1 <0>        -0.0808
      5 C5          1.2046   -0.6805   -0.0131 C.ar      1 <0>        -0.0595
      6 C6          0.0021   -0.0041    0.0020 C.ar      1 <0>        -0.1270
      7 C7          3.6972   -0.6866   -0.0375 C.ar      1 <0>         0.3418
      8 C8          3.8485   -1.9053    0.6416 C.ar      1 <0>        -0.3477
      9 C9          5.0995   -2.5526    0.5963 C.ar      1 <0>         0.3075
     10 N1          6.0850   -1.9878   -0.0854 N.ar      1 <0>        -0.5634
     11 C10         5.9016   -0.8324   -0.7162 C.ar      1 <0>         0.6025
     12 N2          4.7422   -0.1938   -0.7026 N.ar      1 <0>        -0.5703
     13 N3          6.9560   -0.2811   -1.4137 N.pl3     1 <0>        -0.8046
     14 C11         5.0091   -3.8087    1.3828 C.ar      1 <0>        -0.0380
     15 C12         5.9398   -4.8012    1.6568 C.ar      1 <0>        -0.0611
     16 C13         5.5832   -5.8911    2.4363 C.ar      1 <0>        -0.0617
     17 C14         4.3040   -5.9981    2.9448 C.ar      1 <0>        -0.0793
     18 C15         3.3631   -5.0152    2.6796 C.ar      1 <0>        -0.0497
     19 C16         3.7079   -3.9189    1.9009 C.ar      1 <0>        -0.1435
     20 C17         2.9384   -2.7304    1.4536 C.2       1 <0>         0.4637
     21 O1          1.7764   -2.4848    1.7094 O.2       1 <0>        -0.4126
     22 C18         6.5980   -6.9658    2.7299 C.3       1 <0>         0.1064
     23 N4          7.3232   -6.6308    3.9628 N.3       1 <0>        -0.5247
     24 N5          8.3131   -7.6482    4.2778 N.3       1 <0>        -0.3972
     25 C19         7.9292   -8.4035    5.4868 C.3       1 <0>         0.0805
     26 C20         8.4891   -9.7984    5.3637 C.3       1 <0>        -0.1190
     27 C21         9.8471   -9.9289    6.0744 C.3       1 <0>        -0.1197
     28 C22        10.7406   -8.6941    5.8420 C.3       1 <0>        -0.1235
     29 C23        10.6833   -8.1965    4.4201 C.3       1 <0>        -0.1117
     30 C24         9.5992   -7.1019    4.3126 C.3       1 <0>         0.0510
     31 H1         -0.9604    1.9042    0.0260 H         1 <0>         0.1265
     32 H2          1.1475    3.1726    0.0078 H         1 <0>         0.1281
     33 H3          3.3020    1.9860   -0.0192 H         1 <0>         0.1291
     34 H4          1.2180   -1.7604   -0.0194 H         1 <0>         0.1350
     35 H5         -0.9264   -0.5556    0.0083 H         1 <0>         0.1290
     36 H6          7.8124   -0.7360   -1.4376 H         1 <0>         0.4194
     37 H7          6.8412    0.5615   -1.8803 H         1 <0>         0.4208
     38 H8          6.9422   -4.7247    1.2623 H         1 <0>         0.1360
     39 H9          4.0354   -6.8506    3.5509 H         1 <0>         0.1423
     40 H10         2.3631   -5.1023    3.0782 H         1 <0>         0.1421
     41 H11         6.0891   -7.9214    2.8559 H         1 <0>         0.0929
     42 H12         7.3029   -7.0360    1.9014 H         1 <0>         0.0511
     43 H13         7.7505   -5.7194    3.8946 H         1 <0>         0.3350
     44 H14         8.3418   -7.9177    6.3710 H         1 <0>         0.0420
     45 H15         6.8428   -8.4482    5.5636 H         1 <0>         0.0820
     46 H16         7.7865  -10.5042    5.8067 H         1 <0>         0.0669
     47 H17         8.6154  -10.0392    4.3082 H         1 <0>         0.0747
     48 H18         9.6772  -10.0474    7.1445 H         1 <0>         0.0592
     49 H19        10.3605  -10.8139    5.6983 H         1 <0>         0.0610
     50 H20        10.4167   -7.8946    6.5083 H         1 <0>         0.0574
     51 H21        11.7712   -8.9547    6.0828 H         1 <0>         0.0610
     52 H22        11.6510   -7.7799    4.1404 H         1 <0>         0.0703
     53 H23        10.4345   -9.0229    3.7544 H         1 <0>         0.0769
     54 H24         9.7652   -6.5257    3.4024 H         1 <0>         0.0678
     55 H25         9.6795   -6.4366    5.1722 H         1 <0>         0.0284
@<TRIPOS>BOND
     1    1    6 ar
     2    1    2 ar
     3    1   31 1
     4    2    3 ar
     5    2   32 1
     6    3    4 ar
     7    3   33 1
     8    4    5 ar
     9    4    7 1
    10    5    6 ar
    11    5   34 1
    12    6   35 1
    13    7   12 ar
    14    7    8 ar
    15    8   20 1
    16    8    9 ar
    17    9   10 ar
    18    9   14 1
    19   10   11 ar
    20   11   12 ar
    21   11   13 1
    22   13   36 1
    23   13   37 1
    24   14   19 ar
    25   14   15 ar
    26   15   16 ar
    27   15   38 1
    28   16   17 ar
    29   16   22 1
    30   17   18 ar
    31   17   39 1
    32   18   19 ar
    33   18   40 1
    34   19   20 1
    35   20   21 2
    36   22   23 1
    37   22   41 1
    38   22   42 1
    39   23   24 1
    40   23   43 1
    41   24   30 1
    42   24   25 1
    43   25   26 1
    44   25   44 1
    45   25   45 1
    46   26   27 1
    47   26   46 1
    48   26   47 1
    49   27   28 1
    50   27   48 1
    51   27   49 1
    52   28   29 1
    53   28   50 1
    54   28   51 1
    55   29   30 1
    56   29   52 1
    57   29   53 1
    58   30   54 1
    59   30   55 1
