@<TRIPOS>MOLECULE
CHEMBL77691
   55    57     0     0     0
SMALL
USER_CHARGES

@<TRIPOS>ATOM
      1 C1         -0.0187    1.5258    0.0104 C.3       1 <0>        -0.1671
      2 C2          0.0021   -0.0041    0.0020 C.3       1 <0>         0.1160
      3 N1          0.7106   -0.4894    1.1889 N.am      1 <0>        -0.5086
      4 C3          2.0811   -0.6960    1.1410 C.2       1 <0>         0.3271
      5 C4          2.7293   -1.1578    2.2839 C.2       1 <0>        -0.1534
      6 C5          1.9763   -1.3996    3.4501 C.2       1 <0>         0.5950
      7 O1          2.5212   -1.8034    4.4623 O.2       1 <0>        -0.5147
      8 N2          0.6456   -1.1787    3.4338 N.am      1 <0>        -0.5494
      9 C6          0.0314   -0.7289    2.3262 C.2       1 <0>         0.7080
     10 O2         -1.1692   -0.5373    2.3508 O.2       1 <0>        -0.5321
     11 C7         -0.1416   -1.4286    4.6438 C.3       1 <0>         0.1108
     12 C8         -0.1949   -0.1549    5.4897 C.3       1 <0>        -0.1665
     13 N3          4.0689   -1.2730    1.9569 N.pl3     1 <0>        -0.4112
     14 C9          4.1896   -0.8855    0.6525 C.2       1 <0>         0.3291
     15 N4          2.9977   -0.5472    0.1878 N.2       1 <0>        -0.4897
     16 C10         5.4382   -0.8502   -0.1095 C.2       1 <0>        -0.1340
     17 C11         5.4315   -0.4471   -1.3976 C.2       1 <0>        -0.0066
     18 C12         6.6851   -0.4117   -2.1627 C.ar      1 <0>        -0.1292
     19 C13         7.8872   -0.8006   -1.5608 C.ar      1 <0>        -0.0525
     20 C14         9.0592   -0.7657   -2.2816 C.ar      1 <0>        -0.2117
     21 C15         9.0540   -0.3449   -3.6075 C.ar      1 <0>         0.1552
     22 C16         7.8682    0.0434   -4.2142 C.ar      1 <0>        -0.1384
     23 C17         6.6818    0.0072   -3.5032 C.ar      1 <0>         0.1593
     24 O3          5.5198    0.3806   -4.0973 O.3       1 <0>        -0.3281
     25 C18         5.1588    1.7602   -4.0064 C.3       1 <0>         0.0333
     26 C19         7.8713    0.4984   -5.6508 C.3       1 <0>        -0.1020
     27 O4         10.2149   -0.3136   -4.3111 O.3       1 <0>        -0.3085
     28 C20        11.3997   -0.7258   -3.6267 C.3       1 <0>         0.0243
     29 C21         5.1486   -1.7234    2.8388 C.3       1 <0>         0.0703
     30 H1          1.0039    1.9031    0.0027 H         1 <0>         0.0607
     31 H2         -0.5459    1.8868   -0.8726 H         1 <0>         0.0779
     32 H3         -0.5289    1.8773    0.9072 H         1 <0>         0.0609
     33 H4         -1.0205   -0.3814    0.0098 H         1 <0>         0.0999
     34 H5          0.5123   -0.3556   -0.8948 H         1 <0>         0.0985
     35 H6         -1.1536   -1.7221    4.3647 H         1 <0>         0.1027
     36 H7          0.3227   -2.2286    5.2205 H         1 <0>         0.1010
     37 H8          0.8170    0.1386    5.7688 H         1 <0>         0.0600
     38 H9         -0.6592    0.6451    4.9130 H         1 <0>         0.0622
     39 H10        -0.7807   -0.3408    6.3899 H         1 <0>         0.0793
     40 H11         6.3651   -1.1467    0.3587 H         1 <0>         0.1397
     41 H12         4.5045   -0.1507   -1.8658 H         1 <0>         0.1424
     42 H13         7.8953   -1.1276   -0.5315 H         1 <0>         0.1347
     43 H14         9.9863   -1.0657   -1.8160 H         1 <0>         0.1361
     44 H15         5.9340    2.3700   -4.4703 H         1 <0>         0.0502
     45 H16         4.2120    1.9227   -4.5215 H         1 <0>         0.1002
     46 H17         5.0549    2.0403   -2.9581 H         1 <0>         0.0513
     47 H18         7.7122   -0.3596   -6.3041 H         1 <0>         0.0731
     48 H19         7.0729    1.2245   -5.8037 H         1 <0>         0.0674
     49 H20         8.8311    0.9594   -5.8839 H         1 <0>         0.0714
     50 H21        11.5632   -0.0813   -2.7630 H         1 <0>         0.0585
     51 H22        11.2867   -1.7576   -3.2939 H         1 <0>         0.0590
     52 H23        12.2529   -0.6529   -4.3011 H         1 <0>         0.1041
     53 H24         5.2591   -2.8045    2.7550 H         1 <0>         0.0875
     54 H25         6.0809   -1.2392    2.5482 H         1 <0>         0.0947
     55 H26         4.9090   -1.4614    3.8694 H         1 <0>         0.1021
@<TRIPOS>BOND
     1    1    2 1
     2    1   30 1
     3    1   31 1
     4    1   32 1
     5    2    3 1
     6    2   33 1
     7    2   34 1
     8    3    9 am
     9    3    4 1
    10    4   15 1
    11    4    5 2
    12    5    6 1
    13    5   13 1
    14    6    7 2
    15    6    8 am
    16    8    9 am
    17    8   11 1
    18    9   10 2
    19   11   12 1
    20   11   35 1
    21   11   36 1
    22   12   37 1
    23   12   38 1
    24   12   39 1
    25   13   14 1
    26   13   29 1
    27   14   15 2
    28   14   16 1
    29   16   17 2
    30   16   40 1
    31   17   18 1
    32   17   41 1
    33   18   23 ar
    34   18   19 ar
    35   19   20 ar
    36   19   42 1
    37   20   21 ar
    38   20   43 1
    39   21   22 ar
    40   21   27 1
    41   22   23 ar
    42   22   26 1
    43   23   24 1
    44   24   25 1
    45   25   44 1
    46   25   45 1
    47   25   46 1
    48   26   47 1
    49   26   48 1
    50   26   49 1
    51   27   28 1
    52   28   50 1
    53   28   51 1
    54   28   52 1
    55   29   53 1
    56   29   54 1
    57   29   55 1
