@<TRIPOS>MOLECULE
CHEMBL604649
   47    50     0     0     0
SMALL
USER_CHARGES

@<TRIPOS>ATOM
      1 C1         -0.0187    1.5258    0.0104 C.3       1 <0>        -0.1679
      2 C2          0.0021   -0.0041    0.0020 C.3       1 <0>         0.1135
      3 N1         -1.3723   -0.5112    0.0124 N.am      1 <0>        -0.7272
      4 C3         -1.6006   -1.8394    0.0075 C.2       1 <0>         0.5160
      5 O1         -0.6682   -2.6149   -0.0056 O.2       1 <0>        -0.5033
      6 C4         -3.0144   -2.3611    0.0182 C.3       1 <0>         0.0316
      7 H1         -3.5805   -1.9494   -0.8174 H         1 <0>         0.1225
      8 C5         -3.7084   -2.0293    1.3638 C.3       1 <0>         0.0510
      9 H2         -3.0081   -2.1165    2.1945 H         1 <0>         0.0955
     10 C6         -4.8001   -3.1239    1.4442 C.3       1 <0>         0.0823
     11 H3         -4.8843   -3.5048    2.4620 H         1 <0>         0.0907
     12 C7         -4.2978   -4.2288    0.4946 C.3       1 <0>         0.3130
     13 O2         -3.0242   -3.8042   -0.0230 O.3       1 <0>        -0.3262
     14 N2         -4.1443   -5.4862    1.2305 N.pl3     1 <0>        -0.4733
     15 C8         -2.9963   -5.9538    1.7992 C.2       1 <0>         0.2730
     16 N3         -3.2189   -7.1007    2.3728 N.2       1 <0>        -0.4562
     17 C9         -4.5191   -7.4424    2.2102 C.ar      1 <0>        -0.0980
     18 C10        -5.1309   -6.4077    1.4795 C.ar      1 <0>         0.3132
     19 N4         -6.4219   -6.4967    1.1873 N.ar      1 <0>        -0.5287
     20 C11        -7.1328   -7.5482    1.5812 C.ar      1 <0>         0.4975
     21 N5         -6.5930   -8.5482    2.2778 N.ar      1 <0>        -0.5686
     22 C12        -5.3073   -8.5400    2.6032 C.ar      1 <0>         0.5164
     23 N6         -4.7555   -9.5822    3.3277 N.pl3     1 <0>        -0.8125
     24 C13        -8.5239   -7.6087    1.2468 C.1       1 <0>        -0.0671
     25 C14        -9.6644   -7.6582    0.9726 C.1       1 <0>        -0.0138
     26 C15       -11.0554   -7.7187    0.6382 C.2       1 <0>        -0.0746
     27 C16       -11.8233   -6.8108   -0.0744 C.2       1 <0>        -0.1112
     28 C17       -13.1540   -7.0926   -0.2686 C.2       1 <0>        -0.1621
     29 C18       -13.6723   -8.2426    0.2393 C.2       1 <0>        -0.1642
     30 S1        -12.2519   -8.9867    1.0235 S.3       1 <0>         0.0984
     31 O3         -6.0569   -2.6106    0.9981 O.3       1 <0>        -0.5311
     32 O4         -4.2936   -0.7261    1.3280 O.3       1 <0>        -0.5360
     33 H4          1.0039    1.9031    0.0027 H         1 <0>         0.0793
     34 H5         -0.5459    1.8868   -0.8726 H         1 <0>         0.0645
     35 H6         -0.5289    1.8773    0.9072 H         1 <0>         0.0637
     36 H7          0.5123   -0.3556   -0.8948 H         1 <0>         0.0732
     37 H8          0.5293   -0.3651    0.8851 H         1 <0>         0.0729
     38 H9         -2.1181    0.1091    0.0229 H         1 <0>         0.3979
     39 H10        -5.0029   -4.3610   -0.3260 H         1 <0>         0.1331
     40 H11        -2.0428   -5.4471    1.7765 H         1 <0>         0.2279
     41 H12        -3.8164   -9.5608    3.5697 H         1 <0>         0.4220
     42 H13        -5.3079  -10.3339    3.5935 H         1 <0>         0.4131
     43 H14       -11.3866   -5.9043   -0.4668 H         1 <0>         0.1432
     44 H15       -13.7820   -6.4075   -0.8188 H         1 <0>         0.1423
     45 H16       -14.6849   -8.6134    0.1798 H         1 <0>         0.1925
     46 H17        -6.3912   -1.8738    1.5276 H         1 <0>         0.3973
     47 H18        -3.6563   -0.0124    1.1882 H         1 <0>         0.3844
@<TRIPOS>BOND
     1    1    2 1
     2    1   33 1
     3    1   34 1
     4    1   35 1
     5    2    3 1
     6    2   36 1
     7    2   37 1
     8    3    4 am
     9    3   38 1
    10    4    5 2
    11    4    6 1
    12    6    7 1
    13    6   13 1
    14    6    8 1
    15    8    9 1
    16    8   10 1
    17    8   32 1
    18   10   11 1
    19   10   12 1
    20   10   31 1
    21   12   13 1
    22   12   14 1
    23   12   39 1
    24   14   18 1
    25   14   15 1
    26   15   16 2
    27   15   40 1
    28   16   17 1
    29   17   22 ar
    30   17   18 ar
    31   18   19 ar
    32   19   20 ar
    33   20   21 ar
    34   20   24 1
    35   21   22 ar
    36   22   23 1
    37   23   41 1
    38   23   42 1
    39   24   25 3
    40   25   26 1
    41   26   30 1
    42   26   27 2
    43   27   28 1
    44   27   43 1
    45   28   29 2
    46   28   44 1
    47   29   30 1
    48   29   45 1
    49   31   46 1
    50   32   47 1
