@<TRIPOS>MOLECULE
CHEMBL606319
   51    54     0     0     0
SMALL
USER_CHARGES

@<TRIPOS>ATOM
      1 C1         -0.0187    1.5258    0.0104 C.3       1 <0>        -0.1685
      2 C2          0.0021   -0.0041    0.0020 C.3       1 <0>         0.1130
      3 N1          0.6878   -0.4765   -1.2033 N.am      1 <0>        -0.7256
      4 C3          0.8268   -1.7986   -1.4250 C.2       1 <0>         0.5149
      5 O1          0.3843   -2.5972   -0.6267 O.2       1 <0>        -0.5027
      6 C4          1.5322   -2.2846   -2.6649 C.3       1 <0>         0.0317
      7 H1          2.5323   -1.8560   -2.7290 H         1 <0>         0.1237
      8 C5          0.7085   -1.9402   -3.9319 C.3       1 <0>         0.0512
      9 H2         -0.3595   -2.0480   -3.7427 H         1 <0>         0.0966
     10 C6          1.2015   -3.0074   -4.9392 C.3       1 <0>         0.0827
     11 H3          0.3680   -3.3897   -5.5285 H         1 <0>         0.0898
     12 C7          1.7901   -4.1212   -4.0517 C.3       1 <0>         0.3112
     13 O2          1.5952   -3.7270   -2.6817 O.3       1 <0>        -0.3252
     14 N2          1.0956   -5.3847   -4.3118 N.pl3     1 <0>        -0.4691
     15 C8          0.0371   -5.8826   -3.6116 C.2       1 <0>         0.2857
     16 N3         -0.3305   -7.0259   -4.1137 N.2       1 <0>        -0.4564
     17 C9          0.4656   -7.3344   -5.1647 C.ar      1 <0>        -0.0846
     18 C10         1.3874   -6.2818   -5.3089 C.ar      1 <0>         0.3071
     19 N4          2.2866   -6.3378   -6.2830 N.ar      1 <0>        -0.5192
     20 C11         2.3169   -7.3703   -7.1145 C.ar      1 <0>         0.4603
     21 N5          1.4623   -8.3848   -7.0165 N.ar      1 <0>        -0.5737
     22 C12         0.5371   -8.4123   -6.0657 C.ar      1 <0>         0.5186
     23 N6         -0.3489   -9.4714   -5.9722 N.pl3     1 <0>        -0.8083
     24 C13         3.3026   -7.3937   -8.1530 C.1       1 <0>         0.0086
     25 C14         4.1107   -7.4129   -9.0044 C.1       1 <0>        -0.1940
     26 C15         5.1240   -7.4370  -10.0719 C.3       1 <0>         0.2316
     27 N7          4.9715   -8.6609  -10.8624 N.pl3     1 <0>        -0.4138
     28 C16         5.5801   -9.8634  -10.6231 C.2       1 <0>         0.0327
     29 C17         5.1635  -10.7091  -11.5848 C.2       1 <0>         0.0029
     30 N8          4.3234  -10.0412  -12.3893 N.pl3     1 <0>        -0.4752
     31 C18         4.1997   -8.8152  -11.9598 C.cat     1 <0>         0.2983
     32 O3          2.2079   -2.4612   -5.7941 O.3       1 <0>        -0.5333
     33 O4          1.0116   -0.6227   -4.3947 O.3       1 <0>        -0.5365
     34 H4          1.0039    1.9031    0.0027 H         1 <0>         0.0649
     35 H5         -0.5459    1.8868   -0.8726 H         1 <0>         0.0638
     36 H6         -0.5289    1.8773    0.9072 H         1 <0>         0.0808
     37 H7          0.5293   -0.3651    0.8851 H         1 <0>         0.0743
     38 H8         -1.0205   -0.3814    0.0098 H         1 <0>         0.0738
     39 H9          1.0417    0.1622   -1.8418 H         1 <0>         0.3979
     40 H10         2.8552   -4.2328   -4.2545 H         1 <0>         0.1334
     41 H11        -0.4277   -5.3998   -2.7647 H         1 <0>         0.2327
     42 H12        -1.0284   -9.4756   -5.2800 H         1 <0>         0.4259
     43 H13        -0.2903  -10.2095   -6.5988 H         1 <0>         0.4131
     44 H14         4.9922   -6.5687  -10.7175 H         1 <0>         0.1499
     45 H15         6.1195   -7.4124   -9.6286 H         1 <0>         0.1522
     46 H16         6.2633  -10.0903   -9.8181 H         1 <0>         0.2244
     47 H17         5.4547  -11.7438  -11.6899 H         1 <0>         0.2246
     48 H18         3.5842   -8.0499  -12.4090 H         1 <0>         0.2616
     49 H19         1.9048   -1.7181   -6.3335 H         1 <0>         0.3989
     50 H20         0.8031    0.0753   -3.7587 H         1 <0>         0.3874
     51 H21         3.8756  -10.4120  -13.1657 H         1 <0>         0.4658
@<TRIPOS>BOND
     1    1    2 1
     2    1   34 1
     3    1   35 1
     4    1   36 1
     5    2    3 1
     6    2   37 1
     7    2   38 1
     8    3    4 am
     9    3   39 1
    10    4    5 2
    11    4    6 1
    12    6    7 1
    13    6   13 1
    14    6    8 1
    15    8    9 1
    16    8   10 1
    17    8   33 1
    18   10   11 1
    19   10   12 1
    20   10   32 1
    21   12   13 1
    22   12   14 1
    23   12   40 1
    24   14   18 1
    25   14   15 1
    26   15   16 2
    27   15   41 1
    28   16   17 1
    29   17   22 ar
    30   17   18 ar
    31   18   19 ar
    32   19   20 ar
    33   20   21 ar
    34   20   24 1
    35   21   22 ar
    36   22   23 1
    37   23   42 1
    38   23   43 1
    39   24   25 3
    40   25   26 1
    41   26   27 1
    42   26   44 1
    43   26   45 1
    44   27   31 1
    45   27   28 1
    46   28   29 2
    47   28   46 1
    48   29   30 1
    49   29   47 1
    50   30   31 2
    51   30   51 1
    52   31   48 1
    53   32   49 1
    54   33   50 1
