@<TRIPOS>MOLECULE
CHEMBL259164
   42    45     0     0     0
SMALL
USER_CHARGES

@<TRIPOS>ATOM
      1 C1         -0.0167    1.3781    0.0096 C.ar      1 <0>        -0.1062
      2 C2          1.1709    2.0855    0.0021 C.ar      1 <0>        -0.1212
      3 C3          2.3773    1.4107   -0.0130 C.ar      1 <0>        -0.0971
      4 C4          2.3960    0.0285   -0.0201 C.ar      1 <0>        -0.1177
      5 C5          1.2084   -0.6789   -0.0117 C.ar      1 <0>        -0.0971
      6 C6          0.0021   -0.0041    0.0020 C.ar      1 <0>        -0.1211
      7 C7          3.7112   -0.7071   -0.0376 C.3       1 <0>         0.1764
      8 N1          4.1518   -0.9524    1.3379 N.am      1 <0>        -0.7207
      9 C8          5.3108   -1.6005    1.5688 C.2       1 <0>         0.7079
     10 O1          5.9902   -1.9813    0.6361 O.2       1 <0>        -0.5094
     11 N2          5.7161   -1.8261    2.8342 N.am      1 <0>        -0.4704
     12 C9          5.0538   -1.4615    3.9773 C.2       1 <0>         0.2497
     13 N3          5.7311   -1.8377    5.0212 N.2       1 <0>        -0.4222
     14 C10         6.8660   -2.4648    4.6271 C.ar      1 <0>        -0.1005
     15 C11         6.8713   -2.4719    3.2199 C.ar      1 <0>         0.3645
     16 N4          7.8839   -3.0385    2.5798 N.ar      1 <0>        -0.5533
     17 C12         8.8804   -3.5954    3.2515 C.ar      1 <0>         0.5994
     18 N5          8.9174   -3.6155    4.5759 N.ar      1 <0>        -0.5536
     19 C13         7.9465   -3.0627    5.2993 C.ar      1 <0>         0.3390
     20 C14         7.9949   -3.0916    6.7795 C.ar      1 <0>        -0.0650
     21 C15         7.4828   -2.0249    7.5178 C.ar      1 <0>        -0.0646
     22 C16         7.5303   -2.0579    8.8964 C.ar      1 <0>        -0.1278
     23 C17         8.0845   -3.1462    9.5464 C.ar      1 <0>        -0.0963
     24 C18         8.5941   -4.2073    8.8196 C.ar      1 <0>        -0.1306
     25 C19         8.5475   -4.1883    7.4406 C.ar      1 <0>        -0.0683
     26 N6          9.9200   -4.1776    2.5448 N.pl3     1 <0>        -0.8099
     27 H1         -0.9591    1.9053    0.0259 H         1 <0>         0.1255
     28 H2          1.1563    3.1654    0.0076 H         1 <0>         0.1263
     29 H3          3.3051    1.9634   -0.0196 H         1 <0>         0.1255
     30 H4          1.2231   -1.7588   -0.0176 H         1 <0>         0.1254
     31 H5         -0.9258   -0.5567    0.0082 H         1 <0>         0.1263
     32 H6          3.5884   -1.6586   -0.5549 H         1 <0>         0.0842
     33 H7          4.4573   -0.1052   -0.5563 H         1 <0>         0.0842
     34 H8          3.6095   -0.6484    2.0824 H         1 <0>         0.4035
     35 H9          4.1091   -0.9391    4.0065 H         1 <0>         0.2299
     36 H10         7.0502   -1.1747    7.0114 H         1 <0>         0.1334
     37 H11         7.1343   -1.2324    9.4692 H         1 <0>         0.1289
     38 H12         8.1198   -3.1673   10.6256 H         1 <0>         0.1260
     39 H13         9.0258   -5.0539    9.3326 H         1 <0>         0.1281
     40 H14         8.9416   -5.0192    6.8744 H         1 <0>         0.1303
     41 H15         9.9097   -4.1726    1.5749 H         1 <0>         0.4190
     42 H16        10.6582   -4.5902    3.0199 H         1 <0>         0.4197
@<TRIPOS>BOND
     1    1    6 ar
     2    1    2 ar
     3    1   27 1
     4    2    3 ar
     5    2   28 1
     6    3    4 ar
     7    3   29 1
     8    4    5 ar
     9    4    7 1
    10    5    6 ar
    11    5   30 1
    12    6   31 1
    13    7    8 1
    14    7   32 1
    15    7   33 1
    16    8    9 am
    17    8   34 1
    18    9   10 2
    19    9   11 am
    20   11   15 1
    21   11   12 1
    22   12   13 2
    23   12   35 1
    24   13   14 1
    25   14   19 ar
    26   14   15 ar
    27   15   16 ar
    28   16   17 ar
    29   17   18 ar
    30   17   26 1
    31   18   19 ar
    32   19   20 1
    33   20   25 ar
    34   20   21 ar
    35   21   22 ar
    36   21   36 1
    37   22   23 ar
    38   22   37 1
    39   23   24 ar
    40   23   38 1
    41   24   25 ar
    42   24   39 1
    43   25   40 1
    44   26   41 1
    45   26   42 1
