@<TRIPOS>MOLECULE
CHEMBL260146
   39    42     0     0     0
SMALL
USER_CHARGES

@<TRIPOS>ATOM
      1 C1         -0.0167    1.3781    0.0096 C.ar      1 <0>        -0.1079
      2 C2          1.1709    2.0855    0.0021 C.ar      1 <0>        -0.1216
      3 C3          2.3773    1.4107   -0.0130 C.ar      1 <0>        -0.0970
      4 C4          2.3960    0.0285   -0.0201 C.ar      1 <0>        -0.1143
      5 C5          1.2084   -0.6789   -0.0117 C.ar      1 <0>        -0.0970
      6 C6          0.0021   -0.0041    0.0020 C.ar      1 <0>        -0.1216
      7 C7          3.7112   -0.7071   -0.0376 C.3       1 <0>         0.1751
      8 N1          4.1518   -0.9524    1.3379 N.am      1 <0>        -0.7137
      9 C8          5.3108   -1.6005    1.5688 C.2       1 <0>         0.7287
     10 O1          5.9902   -1.9814    0.6360 O.2       1 <0>        -0.5222
     11 N2          5.7161   -1.8261    2.8342 N.am      1 <0>        -0.3750
     12 C9          6.8703   -2.4651    3.2077 C.ar      1 <0>         0.4271
     13 C10         6.8834   -2.4739    4.6162 C.ar      1 <0>        -0.3142
     14 C11         5.7061   -1.8230    5.0454 C.2       1 <0>         0.1581
     15 N3          5.0346   -1.4433    3.9965 N.2       1 <0>        -0.2552
     16 C12         7.9776   -3.0792    5.2729 C.ar      1 <0>         0.3877
     17 N4          8.9460   -3.6135    4.5293 N.ar      1 <0>        -0.5618
     18 C13         8.8885   -3.5803    3.2053 C.ar      1 <0>         0.6210
     19 N5          7.8812   -3.0237    2.5509 N.ar      1 <0>        -0.5615
     20 N6          9.9202   -4.1495    2.4797 N.pl3     1 <0>        -0.8032
     21 C14         8.0468   -3.1185    6.7429 C.2       1 <0>        -0.0070
     22 C15         8.5730   -4.1277    7.4926 C.2       1 <0>        -0.1237
     23 C16         8.4302   -3.7483    8.8393 C.2       1 <0>        -0.2206
     24 C17         7.8307   -2.5394    8.8489 C.2       1 <0>        -0.0047
     25 O2          7.6062   -2.1600    7.5820 O.3       1 <0>        -0.1614
     26 H1         -0.9591    1.9053    0.0259 H         1 <0>         0.1248
     27 H2          1.1563    3.1654    0.0076 H         1 <0>         0.1257
     28 H3          3.3051    1.9634   -0.0196 H         1 <0>         0.1248
     29 H4          1.2231   -1.7588   -0.0176 H         1 <0>         0.1248
     30 H5         -0.9258   -0.5567    0.0082 H         1 <0>         0.1257
     31 H6          3.5884   -1.6586   -0.5549 H         1 <0>         0.0822
     32 H7          4.4573   -0.1052   -0.5563 H         1 <0>         0.0822
     33 H8          3.6095   -0.6484    2.0824 H         1 <0>         0.4126
     34 H9          5.4135   -1.6629    6.0726 H         1 <0>         0.2089
     35 H10        10.6670   -4.5627    2.9407 H         1 <0>         0.4211
     36 H11         9.8966   -4.1354    1.5101 H         1 <0>         0.4219
     37 H12         9.0137   -5.0422    7.1239 H         1 <0>         0.1590
     38 H13         8.7414   -4.3172    9.7029 H         1 <0>         0.1581
     39 H14         7.5777   -1.9694    9.7307 H         1 <0>         0.2139
@<TRIPOS>BOND
     1    1    6 ar
     2    1    2 ar
     3    1   26 1
     4    2    3 ar
     5    2   27 1
     6    3    4 ar
     7    3   28 1
     8    4    5 ar
     9    4    7 1
    10    5    6 ar
    11    5   29 1
    12    6   30 1
    13    7    8 1
    14    7   31 1
    15    7   32 1
    16    8    9 am
    17    8   33 1
    18    9   10 2
    19    9   11 am
    20   11   15 1
    21   11   12 1
    22   12   19 ar
    23   12   13 ar
    24   13   14 1
    25   13   16 ar
    26   14   15 2
    27   14   34 1
    28   16   17 ar
    29   16   21 1
    30   17   18 ar
    31   18   19 ar
    32   18   20 1
    33   20   35 1
    34   20   36 1
    35   21   25 1
    36   21   22 2
    37   22   23 1
    38   22   37 1
    39   23   24 2
    40   23   38 1
    41   24   25 1
    42   24   39 1
