@<TRIPOS>MOLECULE
CHEMBL469893
   56    62     0     0     0
SMALL
USER_CHARGES

@<TRIPOS>ATOM
      1 C1         -0.0162    1.3433    0.0094 C.2       1 <0>        -0.2200
      2 C2          1.3252    1.7744   -0.0011 C.2       1 <0>        -0.1369
      3 C3          2.0962    0.6548   -0.0144 C.2       1 <0>         0.0420
      4 O1          1.2797   -0.4166   -0.0124 O.3       1 <0>        -0.1522
      5 C4          0.0021   -0.0041    0.0020 C.2       1 <0>        -0.0040
      6 C5          3.5736    0.6193   -0.0287 C.2       1 <0>         0.3507
      7 N1          4.3223   -0.4908   -0.0472 N.2       1 <0>        -0.5160
      8 C6          5.5979   -0.1638   -0.0558 C.2       1 <0>         0.4062
      9 C7          6.8494   -0.9218   -0.0750 C.2       1 <0>        -0.2673
     10 C8          7.1770   -2.2895   -0.0925 C.2       1 <0>         0.1327
     11 N2          8.4769   -2.4024   -0.1057 N.2       1 <0>        -0.2646
     12 N3          9.0564   -1.1275   -0.0976 N.pl3     1 <0>        -0.3554
     13 C9          8.0548   -0.2036   -0.0786 C.2       1 <0>         0.3731
     14 N4          8.0263    1.1363   -0.0638 N.2       1 <0>        -0.5600
     15 C10         6.9037    1.8122   -0.0459 C.2       1 <0>         0.6926
     16 N5          5.6820    1.2042   -0.0426 N.pl3     1 <0>        -0.3763
     17 N6          4.3634    1.6766   -0.0311 N.2       1 <0>        -0.2992
     18 N7          6.9590    3.1863   -0.0316 N.pl3     1 <0>        -0.8014
     19 C11        10.4923   -0.8370   -0.1068 C.3       1 <0>         0.1410
     20 C12        10.9797   -0.7205   -1.5524 C.3       1 <0>         0.0402
     21 N8         12.4195   -0.4292   -1.5616 N.3       1 <0>        -0.5276
     22 C13        12.8821   -0.0993   -2.9191 C.3       1 <0>         0.0541
     23 C14        14.2669    0.5408   -2.8193 C.3       1 <0>        -0.0625
     24 C15        15.1718   -0.3200   -1.9739 C.ar      1 <0>         0.1367
     25 C16        14.6641   -1.2898   -1.1365 C.ar      1 <0>        -0.1249
     26 C17        15.5393   -2.0527   -0.3730 C.ar      1 <0>        -0.0666
     27 C18        16.8995   -1.8141   -0.4828 C.ar      1 <0>        -0.1039
     28 C19        17.3378   -0.8277   -1.3457 C.ar      1 <0>         0.1035
     29 N9         16.4790   -0.1229   -2.0521 N.ar      1 <0>        -0.4815
     30 C20        17.8853   -2.6170    0.3262 C.3       1 <0>        -0.1173
     31 C21        19.3474   -2.1666    0.3074 C.3       1 <0>        -0.1740
     32 C22        18.9278   -3.4344   -0.4394 C.3       1 <0>        -0.1673
     33 C23        13.1875   -1.5573   -1.0243 C.3       1 <0>         0.0933
     34 H1         -0.8931    1.9736    0.0252 H         1 <0>         0.1595
     35 H2          1.6736    2.7966    0.0006 H         1 <0>         0.1600
     36 H3         -0.8667   -0.6456    0.0076 H         1 <0>         0.2142
     37 H4          6.4721   -3.1077   -0.0946 H         1 <0>         0.2026
     38 H5          7.8178    3.6373   -0.0348 H         1 <0>         0.4310
     39 H6          6.1392    3.7046   -0.0183 H         1 <0>         0.4264
     40 H7         10.6764    0.1019    0.4155 H         1 <0>         0.1105
     41 H8         11.0292   -1.6426    0.3939 H         1 <0>         0.1007
     42 H9         10.7956   -1.6593   -2.0747 H         1 <0>         0.0495
     43 H10        10.4428    0.0852   -2.0531 H         1 <0>         0.0870
     44 H11        12.9415   -1.0089   -3.5167 H         1 <0>         0.0449
     45 H12        12.1875    0.6014   -3.3823 H         1 <0>         0.0889
     46 H13        14.6920    0.6411   -3.8180 H         1 <0>         0.0908
     47 H14        14.1776    1.5275   -2.3648 H         1 <0>         0.0938
     48 H15        15.1663   -2.8166    0.2932 H         1 <0>         0.1355
     49 H16        18.3957   -0.6329   -1.4415 H         1 <0>         0.1551
     50 H17        17.4996   -3.0369    1.2552 H         1 <0>         0.1158
     51 H18        19.5963   -1.2896   -0.2902 H         1 <0>         0.0994
     52 H19        19.9239   -2.2901    1.2241 H         1 <0>         0.1017
     53 H20        19.2281   -4.3918   -0.0139 H         1 <0>         0.1008
     54 H21        18.9005   -3.3914   -1.5282 H         1 <0>         0.0964
     55 H22        12.9267   -1.7040    0.0238 H         1 <0>         0.0926
     56 H23        12.9410   -2.4599   -1.5835 H         1 <0>         0.0559
@<TRIPOS>BOND
     1    1    5 2
     2    1    2 1
     3    1   34 1
     4    2    3 2
     5    2   35 1
     6    3    4 1
     7    3    6 1
     8    4    5 1
     9    5   36 1
    10    6   17 2
    11    6    7 1
    12    7    8 2
    13    8   16 1
    14    8    9 1
    15    9   13 2
    16    9   10 1
    17   10   11 2
    18   10   37 1
    19   11   12 1
    20   12   13 1
    21   12   19 1
    22   13   14 1
    23   14   15 2
    24   15   16 1
    25   15   18 1
    26   16   17 1
    27   18   38 1
    28   18   39 1
    29   19   20 1
    30   19   40 1
    31   19   41 1
    32   20   21 1
    33   20   42 1
    34   20   43 1
    35   21   33 1
    36   21   22 1
    37   22   23 1
    38   22   44 1
    39   22   45 1
    40   23   24 1
    41   23   46 1
    42   23   47 1
    43   24   29 ar
    44   24   25 ar
    45   25   26 ar
    46   25   33 1
    47   26   27 ar
    48   26   48 1
    49   27   28 ar
    50   27   30 1
    51   28   29 ar
    52   28   49 1
    53   30   32 1
    54   30   31 1
    55   30   50 1
    56   31   32 1
    57   31   51 1
    58   31   52 1
    59   32   53 1
    60   32   54 1
    61   33   55 1
    62   33   56 1
