@<TRIPOS>MOLECULE
CHEMBL611528
   57    60     0     0     0
SMALL
USER_CHARGES

@<TRIPOS>ATOM
      1 C1         -0.0164    1.3590    0.0095 C.2       1 <0>         0.2683
      2 N1          1.2006    1.8206    0.0004 N.2       1 <0>        -0.4576
      3 C2          2.0754    0.7871   -0.0135 C.ar      1 <0>        -0.1015
      4 C3          3.4784    0.6816   -0.0279 C.ar      1 <0>         0.5148
      5 N2          4.0240   -0.5276   -0.0400 N.ar      1 <0>        -0.5698
      6 C4          3.2683   -1.6225   -0.0386 C.ar      1 <0>         0.4965
      7 N3          1.9438   -1.5670   -0.0257 N.ar      1 <0>        -0.5273
      8 C5          1.3171   -0.3971   -0.0127 C.ar      1 <0>         0.3164
      9 N4          0.0021   -0.0041    0.0020 N.pl3     1 <0>        -0.4691
     10 C6         -1.1668   -0.8871    0.0089 C.3       1 <0>         0.3128
     11 C7         -1.5540   -1.2556    1.4583 C.3       1 <0>         0.0790
     12 H1         -1.1953   -0.4970    2.1540 H         1 <0>         0.0861
     13 C8         -3.0987   -1.2847    1.4384 C.3       1 <0>         0.0475
     14 H2         -3.5036   -0.5406    2.1242 H         1 <0>         0.0877
     15 C9         -3.4621   -0.9305   -0.0207 C.3       1 <0>         0.0504
     16 H3         -3.6135   -1.8381   -0.6051 H         1 <0>         0.1005
     17 O1         -2.3213   -0.1972   -0.5174 O.3       1 <0>        -0.3463
     18 C10        -4.7178   -0.0573   -0.0599 C.3       1 <0>         0.0822
     19 O2         -5.1032    0.1621   -1.4183 O.3       1 <0>        -0.5634
     20 O3         -3.5792   -2.5878    1.7747 O.3       1 <0>        -0.5386
     21 O4         -1.0307   -2.5391    1.8055 O.3       1 <0>        -0.5257
     22 C11         3.9070   -2.9041   -0.0520 C.1       1 <0>        -0.0999
     23 C12         4.4307   -3.9548   -0.0630 C.1       1 <0>        -0.1119
     24 C13         5.0886   -5.2750   -0.0768 C.3       1 <0>         0.2654
     25 C14         6.1107   -5.3115   -1.2112 C.3       1 <0>        -0.1408
     26 C15         5.9331   -6.5259   -2.1314 C.3       1 <0>        -0.1280
     27 C16         5.3048   -6.0307   -3.4526 C.3       1 <0>        -0.1206
     28 C17         3.8438   -5.6705   -3.2180 C.3       1 <0>        -0.1217
     29 C18         3.1528   -6.7376   -2.3812 C.3       1 <0>        -0.1219
     30 C19         2.8786   -6.2154   -0.9748 C.3       1 <0>        -0.1135
     31 C20         4.0868   -6.4064   -0.0732 C.3       1 <0>        -0.1067
     32 O5          5.8411   -5.3607    1.1599 O.3       1 <0>        -0.5617
     33 N5          4.2724    1.8152   -0.0299 N.pl3     1 <0>        -0.8137
     34 H4         -0.9093    1.9664    0.0254 H         1 <0>         0.2259
     35 H5         -0.9651   -1.7870   -0.5722 H         1 <0>         0.1242
     36 H6         -5.5265   -0.5599    0.4706 H         1 <0>         0.0673
     37 H7         -4.5097    0.9001    0.4179 H         1 <0>         0.0612
     38 H8         -5.8941    0.7093   -1.5193 H         1 <0>         0.3870
     39 H9         -4.5433   -2.6629    1.7773 H         1 <0>         0.3876
     40 H10        -1.2440   -2.8205    2.7057 H         1 <0>         0.3909
     41 H11         6.0175   -4.4001   -1.8072 H         1 <0>         0.0761
     42 H12         7.1172   -5.3430   -0.7828 H         1 <0>         0.0799
     43 H13         6.9253   -6.9300   -2.3664 H         1 <0>         0.0606
     44 H14         5.3355   -7.2974   -1.6947 H         1 <0>         0.0882
     45 H15         5.8575   -5.1555   -3.7918 H         1 <0>         0.0619
     46 H16         5.3790   -6.8244   -4.1935 H         1 <0>         0.0613
     47 H17         3.7779   -4.7033   -2.7179 H         1 <0>         0.0619
     48 H18         3.3348   -5.5856   -4.1852 H         1 <0>         0.0561
     49 H19         2.1952   -6.9940   -2.8532 H         1 <0>         0.0576
     50 H20         3.7584   -7.6408   -2.3362 H         1 <0>         0.0712
     51 H21         2.5371   -5.1894   -1.0189 H         1 <0>         0.0725
     52 H22         2.0415   -6.8039   -0.5543 H         1 <0>         0.0635
     53 H23         4.5646   -7.3665   -0.2714 H         1 <0>         0.0900
     54 H24         3.7013   -6.5061    0.9675 H         1 <0>         0.0720
     55 H25         6.5140   -4.6734    1.2593 H         1 <0>         0.3814
     56 H26         3.8626    2.6943   -0.0213 H         1 <0>         0.4212
     57 H27         5.2386    1.7306   -0.0398 H         1 <0>         0.4125
@<TRIPOS>BOND
     1    1    9 1
     2    1    2 2
     3    1   34 1
     4    2    3 1
     5    3    8 ar
     6    3    4 ar
     7    4    5 ar
     8    4   33 1
     9    5    6 ar
    10    6    7 ar
    11    6   22 1
    12    7    8 ar
    13    8    9 1
    14    9   10 1
    15   10   17 1
    16   10   11 1
    17   10   35 1
    18   11   12 1
    19   11   13 1
    20   11   21 1
    21   13   14 1
    22   13   15 1
    23   13   20 1
    24   15   16 1
    25   15   17 1
    26   15   18 1
    27   18   19 1
    28   18   36 1
    29   18   37 1
    30   19   38 1
    31   20   39 1
    32   21   40 1
    33   22   23 3
    34   23   24 1
    35   24   31 1
    36   24   25 1
    37   24   32 1
    38   25   26 1
    39   25   41 1
    40   25   42 1
    41   26   27 1
    42   26   43 1
    43   26   44 1
    44   27   28 1
    45   27   45 1
    46   27   46 1
    47   28   29 1
    48   28   47 1
    49   28   48 1
    50   29   30 1
    51   29   49 1
    52   29   50 1
    53   30   31 1
    54   30   51 1
    55   30   52 1
    56   31   53 1
    57   31   54 1
    58   32   55 1
    59   33   56 1
    60   33   57 1
