@<TRIPOS>MOLECULE
CHEMBL173941
   48    52     0     0     0
SMALL
USER_CHARGES

@<TRIPOS>ATOM
      1 C1         -0.0162    1.3433    0.0094 C.2       1 <0>        -0.2182
      2 C2          1.3252    1.7744   -0.0011 C.2       1 <0>        -0.1302
      3 C3          2.0963    0.6547   -0.0144 C.2       1 <0>         0.0427
      4 O1          1.2798   -0.4167   -0.0124 O.3       1 <0>        -0.1610
      5 C4          0.0021   -0.0041    0.0020 C.2       1 <0>        -0.0108
      6 C5          3.5735    0.6192   -0.0292 C.2       1 <0>         0.3357
      7 N1          4.3782    1.6975   -0.0257 N.2       1 <0>        -0.4986
      8 C6          5.6284    1.3133   -0.0438 C.2       1 <0>         0.5169
      9 N2          6.7827    2.0136   -0.0426 N.2       1 <0>        -0.5456
     10 C7          7.9149    1.3544   -0.2245 C.2       1 <0>         0.6734
     11 N3          7.9251    0.0030   -0.4737 N.pl3     1 <0>        -0.6632
     12 C8          6.8335   -0.7612   -0.0614 C.2       1 <0>         0.6367
     13 N4          5.6350   -0.0666   -0.0535 N.pl3     1 <0>        -0.4344
     14 N5          4.3125   -0.4776   -0.0421 N.2       1 <0>        -0.2866
     15 N6          6.9320   -2.0133    0.2840 N.2       1 <0>        -0.6831
     16 N7          9.1029    2.0335   -0.1638 N.pl3     1 <0>        -0.5701
     17 C9         10.3821    1.3366   -0.3668 C.3       1 <0>         0.1153
     18 C10        11.1896    2.0990   -1.4227 C.3       1 <0>         0.0394
     19 N8         11.3064    3.5076   -1.0223 N.3       1 <0>        -0.5320
     20 C11         9.9899    4.1571   -0.9682 C.3       1 <0>         0.0331
     21 C12         9.1328    3.4801    0.1002 C.3       1 <0>         0.1289
     22 C13        12.2161    4.2355   -1.9170 C.3       1 <0>         0.0980
     23 C14        12.5038    5.5979   -1.3408 C.ar      1 <0>        -0.1672
     24 C15        11.6914    6.6715   -1.6634 C.ar      1 <0>         0.1653
     25 C16        11.9556    7.9230   -1.1341 C.ar      1 <0>        -0.2010
     26 C17        13.0319    8.1010   -0.2818 C.ar      1 <0>         0.1685
     27 C18        13.8437    7.0273    0.0415 C.ar      1 <0>        -0.2022
     28 C19        13.5769    5.7748   -0.4844 C.ar      1 <0>         0.1854
     29 F1         14.3664    4.7260   -0.1651 F         1 <0>        -0.1138
     30 F2         13.2902    9.3226    0.2340 F         1 <0>        -0.1183
     31 F3         10.6411    6.4978   -2.4952 F         1 <0>        -0.1183
     32 H1         -0.8931    1.9736    0.0252 H         1 <0>         0.1588
     33 H2          1.6735    2.7967    0.0011 H         1 <0>         0.1631
     34 H3         -0.8667   -0.6456    0.0069 H         1 <0>         0.2124
     35 H4          6.1427   -2.5028    0.5637 H         1 <0>         0.3781
     36 H5         10.9376    1.3105    0.5706 H         1 <0>         0.1011
     37 H6         10.1944    0.3202   -0.7129 H         1 <0>         0.0869
     38 H7         12.1842    1.6610   -1.5062 H         1 <0>         0.1019
     39 H8         10.6817    2.0353   -2.3850 H         1 <0>         0.0482
     40 H9         10.1144    5.2116   -0.7222 H         1 <0>         0.0934
     41 H10         9.4986    4.0647   -1.9369 H         1 <0>         0.0506
     42 H11         8.1196    3.8802    0.0627 H         1 <0>         0.1183
     43 H12         9.5660    3.6640    1.0834 H         1 <0>         0.0899
     44 H13        13.1483    3.6796   -2.0180 H         1 <0>         0.0995
     45 H14        11.7511    4.3460   -2.8966 H         1 <0>         0.0598
     46 H15        11.3223    8.7607   -1.3864 H         1 <0>         0.1587
     47 H16        14.6835    7.1662    0.7062 H         1 <0>         0.1587
     48 H17         8.6760   -0.4109   -0.9272 H         1 <0>         0.4358
@<TRIPOS>BOND
     1    1    5 2
     2    1    2 1
     3    1   32 1
     4    2    3 2
     5    2   33 1
     6    3    4 1
     7    3    6 1
     8    4    5 1
     9    5   34 1
    10    6   14 2
    11    6    7 1
    12    7    8 2
    13    8   13 1
    14    8    9 1
    15    9   10 2
    16   10   11 1
    17   10   16 1
    18   11   12 1
    19   11   48 1
    20   12   13 1
    21   12   15 2
    22   13   14 1
    23   15   35 1
    24   16   21 1
    25   16   17 1
    26   17   18 1
    27   17   36 1
    28   17   37 1
    29   18   19 1
    30   18   38 1
    31   18   39 1
    32   19   20 1
    33   19   22 1
    34   20   21 1
    35   20   40 1
    36   20   41 1
    37   21   42 1
    38   21   43 1
    39   22   23 1
    40   22   44 1
    41   22   45 1
    42   23   28 ar
    43   23   24 ar
    44   24   25 ar
    45   24   31 1
    46   25   26 ar
    47   25   46 1
    48   26   27 ar
    49   26   30 1
    50   27   28 ar
    51   27   47 1
    52   28   29 1
