@<TRIPOS>MOLECULE
CHEMBL611571
   50    53     0     0     0
SMALL
USER_CHARGES

@<TRIPOS>ATOM
      1 C1         -0.0184    1.5028    0.0103 C.3       1 <0>        -0.1194
      2 C2          0.0021   -0.0041    0.0020 C.ar      1 <0>        -0.0714
      3 C3          0.0057   -0.6860   -1.2020 C.ar      1 <0>        -0.1260
      4 C4          0.0239   -2.0651   -1.2172 C.ar      1 <0>        -0.0872
      5 C5          0.0392   -2.7734   -0.0132 C.ar      1 <0>        -0.0564
      6 C6          0.0359   -2.0782    1.1985 C.ar      1 <0>        -0.0747
      7 C7          0.0229   -0.6990    1.1984 C.ar      1 <0>        -0.1265
      8 C8          0.0582   -4.2479   -0.0213 C.2       1 <0>         0.0962
      9 N1          0.0724   -4.9029    1.0991 N.2       1 <0>        -0.2022
     10 N2          0.0905   -6.3038    1.0914 N.pl3     1 <0>        -0.5411
     11 C9          0.1056   -7.0030    2.2874 C.ar      1 <0>         0.6496
     12 N3          0.0972   -6.3230    3.4276 N.ar      1 <0>        -0.5917
     13 C10         0.1111   -6.9476    4.5993 C.ar      1 <0>         0.5386
     14 C11         0.1349   -8.3535    4.6117 C.ar      1 <0>        -0.1434
     15 C12         0.1430   -9.0304    3.3809 C.ar      1 <0>         0.3557
     16 N4          0.1226   -8.3258    2.2541 N.ar      1 <0>        -0.5975
     17 N5          0.1661  -10.3682    3.6846 N.pl3     1 <0>        -0.4730
     18 C13         0.1715  -10.4786    5.0444 C.2       1 <0>         0.2501
     19 N6          0.1532   -9.2957    5.5860 N.2       1 <0>        -0.4506
     20 C14         0.1813  -11.4750    2.7249 C.3       1 <0>         0.3152
     21 C15         1.6335  -11.8270    2.3330 C.3       1 <0>         0.0791
     22 H1          2.3263  -11.5155    3.1147 H         1 <0>         0.0862
     23 C16         1.6238  -13.3663    2.1999 C.3       1 <0>         0.0470
     24 H2          2.3118  -13.8158    2.9159 H         1 <0>         0.0870
     25 C17         0.1670  -13.7622    2.5272 C.3       1 <0>         0.0505
     26 H3         -0.4158  -13.8560    1.6108 H         1 <0>         0.0993
     27 O1         -0.3378  -12.6767    3.3351 O.3       1 <0>        -0.3461
     28 C18         0.1355  -15.0741    3.3139 C.3       1 <0>         0.0822
     29 O2         -1.2206  -15.4823    3.5052 O.3       1 <0>        -0.5634
     30 O3          1.9643  -13.7558    0.8678 O.3       1 <0>        -0.5394
     31 O4          1.9781  -11.2162    1.0879 O.3       1 <0>        -0.5268
     32 N7          0.1026   -6.2304    5.7825 N.pl3     1 <0>        -0.8136
     33 H4          1.0042    1.8801    0.0026 H         1 <0>         0.0728
     34 H5         -0.5455    1.8639   -0.8728 H         1 <0>         0.0678
     35 H6         -0.5286    1.8543    0.9071 H         1 <0>         0.0679
     36 H7         -0.0062   -0.1371   -2.1320 H         1 <0>         0.1261
     37 H8          0.0259   -2.5961   -2.1577 H         1 <0>         0.1278
     38 H9          0.0473   -2.6194    2.1331 H         1 <0>         0.1362
     39 H10         0.0248   -0.1601    2.1344 H         1 <0>         0.1253
     40 H11         0.0603   -4.7828   -0.9596 H         1 <0>         0.1200
     41 H12         0.0924   -6.7842    0.2487 H         1 <0>         0.4042
     42 H13         0.1884  -11.4101    5.5906 H         1 <0>         0.2214
     43 H14        -0.4004  -11.2169    1.8400 H         1 <0>         0.1214
     44 H15         0.6717  -15.8437    2.7586 H         1 <0>         0.0665
     45 H16         0.6111  -14.9277    4.2836 H         1 <0>         0.0613
     46 H17        -1.3167  -16.3088    3.9979 H         1 <0>         0.3866
     47 H18         1.9733  -14.7126    0.7280 H         1 <0>         0.3870
     48 H19         2.8799  -11.4042    0.7938 H         1 <0>         0.3899
     49 H20         0.0865   -5.2608    5.7619 H         1 <0>         0.4111
     50 H21         0.1129   -6.6973    6.6327 H         1 <0>         0.4203
@<TRIPOS>BOND
     1    1    2 1
     2    1   33 1
     3    1   34 1
     4    1   35 1
     5    2    7 ar
     6    2    3 ar
     7    3    4 ar
     8    3   36 1
     9    4    5 ar
    10    4   37 1
    11    5    6 ar
    12    5    8 1
    13    6    7 ar
    14    6   38 1
    15    7   39 1
    16    8    9 2
    17    8   40 1
    18    9   10 1
    19   10   11 1
    20   10   41 1
    21   11   16 ar
    22   11   12 ar
    23   12   13 ar
    24   13   14 ar
    25   13   32 1
    26   14   19 1
    27   14   15 ar
    28   15   16 ar
    29   15   17 1
    30   17   18 1
    31   17   20 1
    32   18   19 2
    33   18   42 1
    34   20   27 1
    35   20   21 1
    36   20   43 1
    37   21   22 1
    38   21   23 1
    39   21   31 1
    40   23   24 1
    41   23   25 1
    42   23   30 1
    43   25   26 1
    44   25   27 1
    45   25   28 1
    46   28   29 1
    47   28   44 1
    48   28   45 1
    49   29   46 1
    50   30   47 1
    51   31   48 1
    52   32   49 1
    53   32   50 1
