@<TRIPOS>MOLECULE
CHEMBL408703
   28    30     0     0     0
SMALL
USER_CHARGES

@<TRIPOS>ATOM
      1 C1         -0.0184    1.5028    0.0103 C.3       1 <0>        -0.0859
      2 C2          0.0021   -0.0041    0.0020 C.2       1 <0>         0.0459
      3 C3         -1.0888   -0.8043    0.0027 C.2       1 <0>        -0.2340
      4 C4         -0.6312   -2.1291   -0.0066 C.2       1 <0>        -0.0929
      5 C5          0.7471   -2.0683   -0.0126 C.2       1 <0>        -0.1161
      6 O1          1.1026   -0.7663   -0.0131 O.3       1 <0>        -0.1259
      7 C6          1.6603   -3.2111   -0.0227 C.2       1 <0>         0.4968
      8 O2          1.2167   -4.3445   -0.0264 O.2       1 <0>        -0.4042
      9 C7          3.1251   -2.9889   -0.0284 C.ar      1 <0>         0.1712
     10 C8          4.0071   -4.0574   -0.0437 C.ar      1 <0>        -0.1950
     11 C9          5.4092   -3.8437   -0.0496 C.ar      1 <0>         0.1719
     12 C10         6.2045   -5.0555   -0.0659 C.2       1 <0>        -0.1448
     13 C11         5.5853   -6.2489   -0.0739 C.2       1 <0>        -0.1148
     14 S1          3.8539   -5.8220   -0.0600 S.3       1 <0>         0.1715
     15 N1          5.8059   -2.5538   -0.0389 N.ar      1 <0>        -0.4275
     16 C12         4.9377   -1.5728   -0.0241 C.ar      1 <0>         0.2350
     17 N2          3.6317   -1.7529   -0.0244 N.ar      1 <0>        -0.4121
     18 C13         5.4610   -0.1597   -0.0124 C.3       1 <0>         0.5517
     19 F1          6.8159   -0.1612   -0.3612 F         1 <0>        -0.1521
     20 F2          4.7433    0.6111   -0.9333 F         1 <0>        -0.1548
     21 F3          5.3098    0.3830    1.2682 F         1 <0>        -0.1592
     22 H1          1.0042    1.8801    0.0026 H         1 <0>         0.0839
     23 H2         -0.5455    1.8639   -0.8728 H         1 <0>         0.0945
     24 H3         -0.5286    1.8543    0.9071 H         1 <0>         0.0945
     25 H4         -2.1197   -0.4825    0.0098 H         1 <0>         0.1607
     26 H5         -1.2384   -3.0222   -0.0086 H         1 <0>         0.1642
     27 H6          7.2831   -5.0003   -0.0718 H         1 <0>         0.1644
     28 H7          6.0308   -7.2327   -0.0865 H         1 <0>         0.2131
@<TRIPOS>BOND
     1    1    2 1
     2    1   22 1
     3    1   23 1
     4    1   24 1
     5    2    6 1
     6    2    3 2
     7    3    4 1
     8    3   25 1
     9    4    5 2
    10    4   26 1
    11    5    6 1
    12    5    7 1
    13    7    8 2
    14    7    9 1
    15    9   17 ar
    16    9   10 ar
    17   10   14 1
    18   10   11 ar
    19   11   12 1
    20   11   15 ar
    21   12   13 2
    22   12   27 1
    23   13   14 1
    24   13   28 1
    25   15   16 ar
    26   16   17 ar
    27   16   18 1
    28   18   19 1
    29   18   20 1
    30   18   21 1
