@<TRIPOS>MOLECULE
CHEMBL426530
   38    40     0     0     0
SMALL
USER_CHARGES

@<TRIPOS>ATOM
      1 C1         -0.0173    1.4248    0.0099 C.3       1 <0>         0.0391
      2 O1          0.0021   -0.0041    0.0020 O.3       1 <0>        -0.3067
      3 C2          0.6247   -0.6173    1.0396 C.ar      1 <0>         0.3209
      4 C3          0.6799   -2.0056    1.0824 C.ar      1 <0>        -0.1847
      5 C4          1.3156   -2.6232    2.1421 C.ar      1 <0>        -0.0317
      6 C5          1.8826   -1.8197    3.1373 C.ar      1 <0>        -0.1340
      7 C6          1.7865   -0.4358    3.0248 C.ar      1 <0>         0.1530
      8 N1          1.1757    0.1141    1.9942 N.ar      1 <0>        -0.5357
      9 C7          2.5760   -2.4342    4.2964 C.ar      1 <0>        -0.0465
     10 C8          2.6718   -3.8216    4.3977 C.ar      1 <0>        -0.0834
     11 C9          3.3172   -4.3950    5.4754 C.ar      1 <0>        -0.1237
     12 C10         3.8709   -3.5990    6.4590 C.ar      1 <0>        -0.0580
     13 C11         3.7808   -2.2105    6.3685 C.ar      1 <0>        -0.0514
     14 C12         3.1367   -1.6270    5.2809 C.ar      1 <0>        -0.0551
     15 C13         4.3753   -1.3570    7.4255 C.ar      1 <0>         0.4595
     16 N2          4.2839   -0.0327    7.3407 N.ar      1 <0>        -0.6076
     17 C14         4.8165    0.7325    8.2886 C.ar      1 <0>         0.6175
     18 N3          5.4403    0.1746    9.3209 N.ar      1 <0>        -0.6197
     19 C15         5.5320   -1.1492    9.4063 C.ar      1 <0>         0.3792
     20 N4          4.9949   -1.9154    8.4606 N.ar      1 <0>        -0.5696
     21 S1          6.3592   -1.8886   10.7751 S.3       1 <0>         0.0302
     22 C16         6.9020   -0.4759   11.7751 C.3       1 <0>        -0.1469
     23 N5          4.7219    2.1067    8.2001 N.pl3     1 <0>        -0.8024
     24 H1          1.0053    1.8021    0.0021 H         1 <0>         0.0600
     25 H2         -0.5445    1.7859   -0.8732 H         1 <0>         0.0978
     26 H3         -0.5275    1.7763    0.9067 H         1 <0>         0.0600
     27 H4          0.2307   -2.5947    0.2965 H         1 <0>         0.1460
     28 H5          1.3732   -3.7001    2.2011 H         1 <0>         0.1460
     29 H6          2.2204    0.1939    3.7875 H         1 <0>         0.1629
     30 H7          2.2401   -4.4490    3.6319 H         1 <0>         0.1307
     31 H8          3.3889   -5.4700    5.5497 H         1 <0>         0.1354
     32 H9          4.3742   -4.0529    7.2999 H         1 <0>         0.1424
     33 H10         3.0684   -0.5519    5.2043 H         1 <0>         0.1401
     34 H11         7.5677    0.1532   11.1841 H         1 <0>         0.0912
     35 H12         6.0334    0.1050   12.0852 H         1 <0>         0.0912
     36 H13         7.4313   -0.8370   12.6570 H         1 <0>         0.1152
     37 H14         4.2669    2.5140    7.4465 H         1 <0>         0.4199
     38 H15         5.1104    2.6651    8.8916 H         1 <0>         0.4189
@<TRIPOS>BOND
     1    1    2 1
     2    1   24 1
     3    1   25 1
     4    1   26 1
     5    2    3 1
     6    3    8 ar
     7    3    4 ar
     8    4    5 ar
     9    4   27 1
    10    5    6 ar
    11    5   28 1
    12    6    7 ar
    13    6    9 1
    14    7    8 ar
    15    7   29 1
    16    9   14 ar
    17    9   10 ar
    18   10   11 ar
    19   10   30 1
    20   11   12 ar
    21   11   31 1
    22   12   13 ar
    23   12   32 1
    24   13   14 ar
    25   13   15 1
    26   14   33 1
    27   15   20 ar
    28   15   16 ar
    29   16   17 ar
    30   17   18 ar
    31   17   23 1
    32   18   19 ar
    33   19   20 ar
    34   19   21 1
    35   21   22 1
    36   22   34 1
    37   22   35 1
    38   22   36 1
    39   23   37 1
    40   23   38 1
