@<TRIPOS>MOLECULE
CHEMBL514939
   65    69     0     0     0
SMALL
USER_CHARGES

@<TRIPOS>ATOM
      1 C1         -0.0173    1.4248    0.0099 C.3       1 <0>         0.0316
      2 O1          0.0021   -0.0041    0.0020 O.3       1 <0>        -0.3783
      3 C2          0.6518   -0.5703   -1.1379 C.3       1 <0>         0.0352
      4 C3          0.6131   -2.0967   -1.0411 C.3       1 <0>         0.1212
      5 N1         -0.7759   -2.5559   -1.1188 N.pl3     1 <0>        -0.5873
      6 C4         -1.3725   -2.8680   -2.4200 C.3       1 <0>         0.1078
      7 C5         -1.1353   -4.3433   -2.7490 C.3       1 <0>        -0.0326
      8 N2         -1.7335   -4.6562   -4.0537 N.4       1 <0>        -0.3752
      9 C6         -3.1907   -4.4951   -3.9733 C.3       1 <0>        -0.0280
     10 C7         -3.8046   -4.7093   -5.3608 C.3       1 <0>         0.1201
     11 N3         -3.3656   -6.0186   -5.8679 N.pl3     1 <0>        -0.6721
     12 C8         -1.9281   -6.3292   -5.8326 C.3       1 <0>         0.1198
     13 C9         -1.4028   -6.0384   -4.4229 C.3       1 <0>        -0.0226
     14 C10        -4.2896   -6.9430   -6.3693 C.ar      1 <0>         0.1009
     15 C11        -4.6164   -6.9373   -7.7182 C.ar      1 <0>        -0.0568
     16 C12        -5.5287   -7.8504   -8.2113 C.ar      1 <0>        -0.1538
     17 C13        -6.1178   -8.7711   -7.3614 C.ar      1 <0>         0.1465
     18 C14        -5.7947   -8.7796   -6.0151 C.ar      1 <0>        -0.1870
     19 C15        -4.8772   -7.8721   -5.5178 C.ar      1 <0>         0.1274
     20 F1         -4.5569   -7.8843   -4.2054 F         1 <0>        -0.1297
     21 F2         -7.0097   -9.6623   -7.8465 F         1 <0>        -0.1207
     22 C16        -1.5264   -2.6952    0.0398 C.2       1 <0>         0.4582
     23 C17        -0.9637   -2.3949    1.2655 C.2       1 <0>        -0.2652
     24 C18        -1.7510   -2.5467    2.4193 C.2       1 <0>         0.3746
     25 N4         -1.5291   -2.3528    3.7106 N.2       1 <0>        -0.5297
     26 C19        -2.6331   -2.6522    4.4043 C.2       1 <0>         0.3662
     27 N5         -3.5808   -3.0427    3.5722 N.2       1 <0>        -0.3284
     28 N6         -3.0434   -2.9862    2.2801 N.pl3     1 <0>        -0.3755
     29 C20        -3.5361   -3.2649    1.0422 C.2       1 <0>         0.6833
     30 N7         -2.7954   -3.1149   -0.0334 N.2       1 <0>        -0.6049
     31 N8         -4.8323   -3.7045    0.9142 N.pl3     1 <0>        -0.8061
     32 C21        -2.7703   -2.5601    5.8730 C.2       1 <0>         0.0276
     33 C22        -1.8056   -2.1544    6.7405 C.2       1 <0>        -0.1219
     34 C23        -2.3665   -2.2205    8.0313 C.2       1 <0>        -0.2194
     35 C24        -3.6329   -2.6588    7.8894 C.2       1 <0>        -0.0029
     36 O2         -3.8750   -2.8581    6.5839 O.3       1 <0>        -0.1612
     37 H1          1.0053    1.8021    0.0021 H         1 <0>         0.0458
     38 H2         -0.5445    1.7859   -0.8732 H         1 <0>         0.0395
     39 H3         -0.5275    1.7763    0.9067 H         1 <0>         0.0887
     40 H4          0.1385   -0.2506   -2.0447 H         1 <0>         0.0506
     41 H5          1.6883   -0.2344   -1.1694 H         1 <0>         0.0675
     42 H6          1.1847   -2.5275   -1.8631 H         1 <0>         0.1011
     43 H7          1.0473   -2.4117   -0.0922 H         1 <0>         0.1031
     44 H8         -2.4440   -2.6713   -2.3850 H         1 <0>         0.1076
     45 H9         -0.9137   -2.2460   -3.1886 H         1 <0>         0.0964
     46 H10        -0.0638   -4.5400   -2.7840 H         1 <0>         0.1315
     47 H11        -1.5940   -4.9653   -1.9804 H         1 <0>         0.1325
     48 H12        -3.5997   -5.2280   -3.2779 H         1 <0>         0.1331
     49 H13        -3.4265   -3.4902   -3.6228 H         1 <0>         0.1401
     50 H14        -4.8920   -4.6909   -5.2871 H         1 <0>         0.1161
     51 H15        -3.4670   -3.9231   -6.0361 H         1 <0>         0.0836
     52 H16        -1.7748   -7.3817   -6.0708 H         1 <0>         0.1162
     53 H17        -1.4010   -5.7065   -6.5555 H         1 <0>         0.0840
     54 H18        -0.3210   -6.1709   -4.4036 H         1 <0>         0.1382
     55 H19        -1.8658   -6.7247   -3.7138 H         1 <0>         0.1312
     56 H20        -4.1581   -6.2193   -8.3821 H         1 <0>         0.1474
     57 H21        -5.7828   -7.8458   -9.2610 H         1 <0>         0.1515
     58 H22        -6.2559   -9.4982   -5.3538 H         1 <0>         0.1547
     59 H23         0.0580   -2.0516    1.3351 H         1 <0>         0.1649
     60 H24        -5.3875   -3.8137    1.7020 H         1 <0>         0.4288
     61 H25        -5.1918   -3.9055    0.0359 H         1 <0>         0.4250
     62 H26        -0.8028   -1.8421    6.4890 H         1 <0>         0.1631
     63 H27        -1.8745   -1.9680    8.9590 H         1 <0>         0.1611
     64 H28        -4.3372   -2.8197    8.6922 H         1 <0>         0.2149
     65 H29        -1.3658   -4.0261   -4.7508 H         1 <0>         0.4209
@<TRIPOS>BOND
     1    1    2 1
     2    1   37 1
     3    1   38 1
     4    1   39 1
     5    2    3 1
     6    3    4 1
     7    3   40 1
     8    3   41 1
     9    4    5 1
    10    4   42 1
    11    4   43 1
    12    5    6 1
    13    5   22 1
    14    6    7 1
    15    6   44 1
    16    6   45 1
    17    7    8 1
    18    7   46 1
    19    7   47 1
    20    8   13 1
    21    8    9 1
    22    8   65 1
    23    9   10 1
    24    9   48 1
    25    9   49 1
    26   10   11 1
    27   10   50 1
    28   10   51 1
    29   11   12 1
    30   11   14 1
    31   12   13 1
    32   12   52 1
    33   12   53 1
    34   13   54 1
    35   13   55 1
    36   14   19 ar
    37   14   15 ar
    38   15   16 ar
    39   15   56 1
    40   16   17 ar
    41   16   57 1
    42   17   18 ar
    43   17   21 1
    44   18   19 ar
    45   18   58 1
    46   19   20 1
    47   22   30 1
    48   22   23 2
    49   23   24 1
    50   23   59 1
    51   24   28 1
    52   24   25 2
    53   25   26 1
    54   26   27 2
    55   26   32 1
    56   27   28 1
    57   28   29 1
    58   29   30 2
    59   29   31 1
    60   31   60 1
    61   31   61 1
    62   32   36 1
    63   32   33 2
    64   33   34 1
    65   33   62 1
    66   34   35 2
    67   34   63 1
    68   35   36 1
    69   35   64 1
