@<TRIPOS>MOLECULE
CHEMBL118164
   34    37     0     0     0
SMALL
USER_CHARGES

@<TRIPOS>ATOM
      1 C1         -0.0166    1.3732    0.0096 C.ar      1 <0>        -0.1071
      2 C2          1.1686    2.0910    0.0021 C.ar      1 <0>        -0.1001
      3 C3          2.3825    1.4329   -0.0130 C.ar      1 <0>        -0.1115
      4 C4          2.4203    0.0463   -0.0208 C.ar      1 <0>         0.0945
      5 C5          1.2241   -0.6864   -0.0134 C.ar      1 <0>         0.1165
      6 C6          0.0021   -0.0041    0.0020 C.ar      1 <0>        -0.0767
      7 N1          1.2382   -2.0466   -0.0218 N.2       1 <0>        -0.5206
      8 C7          2.3625   -2.7216   -0.0367 C.2       1 <0>         0.4920
      9 C8          3.6482   -2.0076   -0.0446 C.2       1 <0>         0.2439
     10 N2          3.6436   -0.6215   -0.0366 N.am      1 <0>        -0.4718
     11 C9          4.9196   -0.1952   -0.0473 C.2       1 <0>         0.6547
     12 O1          5.2890    0.9656   -0.0441 O.2       1 <0>        -0.5187
     13 N3          5.7169   -1.2835   -0.0618 N.am      1 <0>        -0.3652
     14 N4          4.8893   -2.4153   -0.0593 N.2       1 <0>        -0.2318
     15 C10         7.1183   -1.2829   -0.0759 C.ar      1 <0>         0.1055
     16 C11         7.8122   -0.0798   -0.0700 C.ar      1 <0>        -0.0825
     17 C12         9.1924   -0.0790   -0.0839 C.ar      1 <0>        -0.1735
     18 C13         9.8875   -1.2816   -0.1037 C.ar      1 <0>         0.2134
     19 C14         9.1933   -2.4849   -0.1096 C.ar      1 <0>        -0.1777
     20 C15         7.8131   -2.4854   -0.0900 C.ar      1 <0>        -0.0674
     21 N5         11.2856   -1.2809   -0.1182 N.pl3     1 <0>        -0.8746
     22 N6          2.3392   -4.1021   -0.0444 N.pl3     1 <0>        -0.8058
     23 H1         -0.9610    1.8969    0.0260 H         1 <0>         0.1379
     24 H2          1.1429    3.1706    0.0078 H         1 <0>         0.1371
     25 H3          3.3028    1.9980   -0.0191 H         1 <0>         0.1466
     26 H4         -0.9256   -0.5571    0.0076 H         1 <0>         0.1450
     27 H5          7.2718    0.8552   -0.0549 H         1 <0>         0.1538
     28 H6          9.7320    0.8566   -0.0797 H         1 <0>         0.1319
     29 H7          9.7335   -3.4199   -0.1251 H         1 <0>         0.1316
     30 H8          7.2735   -3.4209   -0.0898 H         1 <0>         0.1372
     31 H9         11.7703   -0.4407   -0.1145 H         1 <0>         0.4005
     32 H10        11.7709   -2.1207   -0.1321 H         1 <0>         0.4002
     33 H11         1.4911   -4.5728   -0.0389 H         1 <0>         0.4222
     34 H12         3.1709   -4.6011   -0.0554 H         1 <0>         0.4206
@<TRIPOS>BOND
     1    1    6 ar
     2    1    2 ar
     3    1   23 1
     4    2    3 ar
     5    2   24 1
     6    3    4 ar
     7    3   25 1
     8    4   10 1
     9    4    5 ar
    10    5    6 ar
    11    5    7 1
    12    6   26 1
    13    7    8 2
    14    8    9 1
    15    8   22 1
    16    9   14 2
    17    9   10 1
    18   10   11 am
    19   11   12 2
    20   11   13 am
    21   13   14 1
    22   13   15 1
    23   15   20 ar
    24   15   16 ar
    25   16   17 ar
    26   16   27 1
    27   17   18 ar
    28   17   28 1
    29   18   19 ar
    30   18   21 1
    31   19   20 ar
    32   19   29 1
    33   20   30 1
    34   21   31 1
    35   21   32 1
    36   22   33 1
    37   22   34 1
