@<TRIPOS>MOLECULE
CHEMBL409460
   67    70     0     0     0
SMALL
USER_CHARGES

@<TRIPOS>ATOM
      1 C1          7.5338   -1.5763    0.7283 C.3       1 <0>        -0.0814
      2 C2          6.5180   -2.6840    0.6171 C.2       1 <0>         0.0276
      3 C3          6.7926   -4.0043    0.6076 C.2       1 <0>        -0.2265
      4 C4          5.5640   -4.6806    0.4893 C.2       1 <0>        -0.1079
      5 C5          4.5954   -3.7264    0.4325 C.2       1 <0>         0.0040
      6 O1          5.1903   -2.5202    0.5171 O.3       1 <0>        -0.1512
      7 C6          3.1456   -3.9703    0.3065 C.ar      1 <0>         0.4653
      8 N1          2.7022   -5.2210    0.2446 N.ar      1 <0>        -0.5058
      9 C7          1.4037   -5.4763    0.1311 C.ar      1 <0>         0.4345
     10 C8          0.5051   -4.4126    0.0771 C.ar      1 <0>        -0.2632
     11 C9          1.0058   -3.1167    0.1446 C.ar      1 <0>         0.4564
     12 N2          2.3161   -2.9342    0.2632 N.ar      1 <0>        -0.5432
     13 N3          0.1413   -2.0214    0.0940 N.pl3     1 <0>        -0.3356
     14 C10         0.3861   -0.7841    0.5997 C.2       1 <0>         0.1177
     15 C11        -0.6974   -0.0160    0.3443 C.2       1 <0>        -0.2587
     16 C12        -1.6337   -0.8028   -0.3370 C.2       1 <0>         0.1055
     17 N4         -1.1308   -2.0002   -0.4925 N.2       1 <0>        -0.2885
     18 C13        -2.9878   -0.3462   -0.8155 C.3       1 <0>        -0.0771
     19 C14         1.6379   -0.3470    1.3159 C.3       1 <0>        -0.0897
     20 N5          0.9468   -6.7885    0.0665 N.am      1 <0>        -0.6544
     21 C15         1.8279   -7.8068    0.0101 C.2       1 <0>         0.5014
     22 O2          3.0164   -7.5865    0.1079 O.2       1 <0>        -0.4353
     23 C16         1.3361   -9.2194   -0.1744 C.3       1 <0>         0.0310
     24 N6          2.4827  -10.1372   -0.2032 N.3       1 <0>        -0.5048
     25 C17         3.3202   -9.8960   -1.3851 C.3       1 <0>         0.0398
     26 C18         2.5062  -10.1664   -2.6526 C.3       1 <0>        -0.1598
     27 C19         2.0159  -11.6169   -2.6387 C.3       1 <0>        -0.1279
     28 C20         1.1867  -11.8550   -1.3736 C.3       1 <0>        -0.1597
     29 H1          0.3094  -11.2083   -1.3865 H         1 <0>         0.0945
     30 C21         2.0390  -11.5357   -0.1433 C.3       1 <0>         0.0662
     31 C22         0.7420  -13.3181   -1.3223 C.3       1 <0>        -0.0037
     32 N7         -0.1774  -13.5898   -2.4352 N.4       1 <0>        -0.3889
     33 C23        -0.4901  -15.0246   -2.4730 C.3       1 <0>        -0.0479
     34 C24        -1.4162  -12.8235   -2.2452 C.3       1 <0>        -0.0523
     35 H2          7.0239   -0.6130    0.7148 H         1 <0>         0.0805
     36 H3          8.0859   -1.6820    1.6622 H         1 <0>         0.0929
     37 H4          8.2263   -1.6327   -0.1115 H         1 <0>         0.0925
     38 H5          7.7706   -4.4572    0.6772 H         1 <0>         0.1578
     39 H6          5.4181   -5.7500    0.4507 H         1 <0>         0.1650
     40 H7         -0.5562   -4.5904   -0.0155 H         1 <0>         0.1603
     41 H8         -0.8191    1.0216    0.6181 H         1 <0>         0.1611
     42 H9         -2.9012    0.0490   -1.8276 H         1 <0>         0.0845
     43 H10        -3.6777   -1.1901   -0.8127 H         1 <0>         0.0768
     44 H11        -3.3638    0.4328   -0.1522 H         1 <0>         0.0857
     45 H12         2.3533    0.0430    0.5919 H         1 <0>         0.0895
     46 H13         1.3906    0.4313    2.0378 H         1 <0>         0.0852
     47 H14         2.0753   -1.1992    1.8360 H         1 <0>         0.0780
     48 H15        -0.0059   -6.9707    0.0619 H         1 <0>         0.4223
     49 H16         0.6781   -9.4859    0.6527 H         1 <0>         0.1114
     50 H17         0.7877   -9.2934   -1.1134 H         1 <0>         0.0715
     51 H18         3.6588   -8.8600   -1.3851 H         1 <0>         0.1057
     52 H19         4.1841  -10.5602   -1.3598 H         1 <0>         0.0868
     53 H20         1.6497   -9.4931   -2.6855 H         1 <0>         0.0655
     54 H21         3.1327  -10.0024   -3.5293 H         1 <0>         0.0846
     55 H22         1.3994  -11.8015   -3.5184 H         1 <0>         0.0585
     56 H23         2.8725  -12.2910   -2.6450 H         1 <0>         0.0836
     57 H24         2.9089  -12.1922   -0.1237 H         1 <0>         0.0952
     58 H25         1.4470  -11.6905    0.7587 H         1 <0>         0.0901
     59 H26         1.6145  -13.9662   -1.4053 H         1 <0>         0.1339
     60 H27         0.2350  -13.5107   -0.3768 H         1 <0>         0.1335
     61 H28        -1.1028  -15.2400   -3.3484 H         1 <0>         0.1246
     62 H29         0.4359  -15.5970   -2.5278 H         1 <0>         0.1241
     63 H30        -1.0355  -15.3015   -1.5707 H         1 <0>         0.1234
     64 H31        -1.1842  -11.7588   -2.2172 H         1 <0>         0.1207
     65 H32        -2.0985  -13.0251   -3.0711 H         1 <0>         0.1252
     66 H33        -1.8852  -13.1179   -1.3064 H         1 <0>         0.1244
     67 H34         0.2567  -13.3172   -3.3043 H         1 <0>         0.4245
@<TRIPOS>BOND
     1    1    2 1
     2    1   35 1
     3    1   36 1
     4    1   37 1
     5    2    6 1
     6    2    3 2
     7    3    4 1
     8    3   38 1
     9    4    5 2
    10    4   39 1
    11    5    6 1
    12    5    7 1
    13    7   12 ar
    14    7    8 ar
    15    8    9 ar
    16    9   10 ar
    17    9   20 1
    18   10   11 ar
    19   10   40 1
    20   11   12 ar
    21   11   13 1
    22   13   17 1
    23   13   14 1
    24   14   15 2
    25   14   19 1
    26   15   16 1
    27   15   41 1
    28   16   17 2
    29   16   18 1
    30   18   42 1
    31   18   43 1
    32   18   44 1
    33   19   45 1
    34   19   46 1
    35   19   47 1
    36   20   21 am
    37   20   48 1
    38   21   22 2
    39   21   23 1
    40   23   24 1
    41   23   49 1
    42   23   50 1
    43   24   30 1
    44   24   25 1
    45   25   26 1
    46   25   51 1
    47   25   52 1
    48   26   27 1
    49   26   53 1
    50   26   54 1
    51   27   28 1
    52   27   55 1
    53   27   56 1
    54   28   29 1
    55   28   30 1
    56   28   31 1
    57   30   57 1
    58   30   58 1
    59   31   32 1
    60   31   59 1
    61   31   60 1
    62   32   33 1
    63   32   34 1
    64   32   67 1
    65   33   61 1
    66   33   62 1
    67   33   63 1
    68   34   64 1
    69   34   65 1
    70   34   66 1
