@<TRIPOS>MOLECULE
CHEMBL1171718
   51    53     0     0     0
SMALL
USER_CHARGES

@<TRIPOS>ATOM
      1 C1         -2.7791    1.3649    0.6158 C.3       1 <0>        -0.1462
      2 C2         -2.8188   -0.0795    0.1126 C.3       1 <0>        -0.1159
      3 C3         -3.5410   -0.1303   -1.2353 C.3       1 <0>        -0.1541
      4 C4         -1.3901   -0.6009   -0.0543 C.3       1 <0>         0.1077
      5 N1         -1.4269   -2.0241   -0.3998 N.am      1 <0>        -0.5719
      6 C5         -1.4643   -2.9911    0.6149 C.ar      1 <0>         0.1553
      7 C6         -2.6779   -3.3789    1.1662 C.ar      1 <0>        -0.0435
      8 C7         -2.6920   -4.3372    2.1690 C.ar      1 <0>        -0.2021
      9 C8         -1.5313   -4.9115    2.6300 C.ar      1 <0>         0.1944
     10 C9         -0.2733   -4.5396    2.0901 C.ar      1 <0>         0.0799
     11 C10        -0.2965   -3.5672    1.0679 C.ar      1 <0>        -0.1056
     12 S1          1.4263   -3.3953    0.6690 S.3       1 <0>         0.0281
     13 C11         2.0483   -4.5930    1.8407 C.2       1 <0>         0.3576
     14 N2          0.9496   -5.0045    2.4291 N.2       1 <0>        -0.4792
     15 N3          3.3575   -4.9794    2.0765 N.am      1 <0>        -0.6148
     16 C12         3.6272   -5.9095    3.0139 C.2       1 <0>         0.5569
     17 O1          2.7215   -6.4094    3.6524 O.2       1 <0>        -0.4548
     18 C13         5.0228   -6.3214    3.2653 C.ar      1 <0>        -0.1467
     19 C14         6.0658   -5.7445    2.5371 C.ar      1 <0>        -0.0561
     20 C15         7.3666   -6.1327    2.7758 C.ar      1 <0>        -0.1585
     21 C16         7.6407   -7.0943    3.7365 C.ar      1 <0>         0.1330
     22 C17         6.6091   -7.6703    4.4623 C.ar      1 <0>        -0.1584
     23 C18         5.3052   -7.2851    4.2361 C.ar      1 <0>        -0.0225
     24 F1          8.9174   -7.4718    3.9658 F         1 <0>        -0.1298
     25 O2         -1.5897   -5.8470    3.6157 O.3       1 <0>        -0.2916
     26 C19        -2.8852   -6.1790    4.1191 C.3       1 <0>         0.0200
     27 C20        -1.4249   -2.4039   -1.6929 C.2       1 <0>         0.5163
     28 O3         -1.5447   -3.5762   -1.9809 O.2       1 <0>        -0.5257
     29 C21        -1.2738   -1.3723   -2.7810 C.3       1 <0>        -0.1798
     30 H1         -3.7969    1.7363    0.7347 H         1 <0>         0.0607
     31 H2         -2.2646    1.4011    1.5760 H         1 <0>         0.0574
     32 H3         -2.2474    1.9862   -0.1049 H         1 <0>         0.0582
     33 H4         -3.3505   -0.7008    0.8333 H         1 <0>         0.0764
     34 H5         -3.5061   -1.1464   -1.6282 H         1 <0>         0.0544
     35 H6         -4.5797    0.1724   -1.1026 H         1 <0>         0.0590
     36 H7         -3.0518    0.5470   -1.9354 H         1 <0>         0.0598
     37 H8         -0.8917   -0.0467   -0.8497 H         1 <0>         0.0940
     38 H9         -0.8434   -0.4676    0.8791 H         1 <0>         0.0823
     39 H10        -3.6010   -2.9392    0.8184 H         1 <0>         0.1432
     40 H11        -3.6364   -4.6386    2.5976 H         1 <0>         0.1464
     41 H12         4.0801   -4.5805    1.5671 H         1 <0>         0.4272
     42 H13         5.8534   -4.9959    1.7882 H         1 <0>         0.1369
     43 H14         8.1739   -5.6873    2.2134 H         1 <0>         0.1470
     44 H15         6.8281   -8.4189    5.2093 H         1 <0>         0.1480
     45 H16         4.5029   -7.7308    4.8053 H         1 <0>         0.1510
     46 H17        -2.7894   -6.9350    4.8984 H         1 <0>         0.1053
     47 H18        -3.3534   -5.2865    4.5342 H         1 <0>         0.0596
     48 H19        -3.5011   -6.5687    3.3085 H         1 <0>         0.0598
     49 H20        -1.0946   -0.3951   -2.3328 H         1 <0>         0.0860
     50 H21        -0.4320   -1.6389   -3.4200 H         1 <0>         0.0960
     51 H22        -2.1856   -1.3369   -3.3773 H         1 <0>         0.0994
@<TRIPOS>BOND
     1    1    2 1
     2    1   30 1
     3    1   31 1
     4    1   32 1
     5    2    3 1
     6    2    4 1
     7    2   33 1
     8    3   34 1
     9    3   35 1
    10    3   36 1
    11    4    5 1
    12    4   37 1
    13    4   38 1
    14    5    6 1
    15    5   27 am
    16    6   11 ar
    17    6    7 ar
    18    7    8 ar
    19    7   39 1
    20    8    9 ar
    21    8   40 1
    22    9   10 ar
    23    9   25 1
    24   10   14 1
    25   10   11 ar
    26   11   12 1
    27   12   13 1
    28   13   14 2
    29   13   15 1
    30   15   16 am
    31   15   41 1
    32   16   17 2
    33   16   18 1
    34   18   23 ar
    35   18   19 ar
    36   19   20 ar
    37   19   42 1
    38   20   21 ar
    39   20   43 1
    40   21   22 ar
    41   21   24 1
    42   22   23 ar
    43   22   44 1
    44   23   45 1
    45   25   26 1
    46   26   46 1
    47   26   47 1
    48   26   48 1
    49   27   28 2
    50   27   29 1
    51   29   49 1
    52   29   50 1
    53   29   51 1
