@<TRIPOS>MOLECULE
CHEMBL423739
   61    64     0     0     0
SMALL
USER_CHARGES

@<TRIPOS>ATOM
      1 C1         -0.0187    1.5258    0.0104 C.3       1 <0>        -0.1678
      2 C2          0.0021   -0.0041    0.0020 C.3       1 <0>         0.1135
      3 N1          0.7106   -0.4894    1.1889 N.am      1 <0>        -0.7273
      4 C3          0.8538   -1.8138    1.3937 C.2       1 <0>         0.5159
      5 O1          0.3960   -2.6038    0.5954 O.2       1 <0>        -0.5033
      6 C4          1.5826   -2.3130    2.6146 C.3       1 <0>         0.0319
      7 H1          1.1317   -1.9093    3.5212 H         1 <0>         0.1221
      8 C5          3.0862   -1.9436    2.5417 C.3       1 <0>         0.0509
      9 H2          3.4577   -2.0251    1.5203 H         1 <0>         0.0948
     10 C6          3.7288   -3.0193    3.4508 C.3       1 <0>         0.0832
     11 H3          4.6617   -3.3784    3.0162 H         1 <0>         0.0897
     12 C7          2.6834   -4.1506    3.4944 C.3       1 <0>         0.3146
     13 H4          2.3285   -4.2882    4.5158 H         1 <0>         0.1311
     14 O2          1.5881   -3.7564    2.6487 O.3       1 <0>        -0.3268
     15 N2          3.2764   -5.3962    3.0013 N.pl3     1 <0>        -0.4758
     16 C8          3.2093   -5.8721    1.7255 C.2       1 <0>         0.2642
     17 N3          3.8465   -7.0037    1.6385 N.2       1 <0>        -0.4574
     18 C9          4.3619   -7.3260    2.8485 C.ar      1 <0>        -0.1125
     19 C10         4.0067   -6.2955    3.7375 C.ar      1 <0>         0.3155
     20 N4          4.3989   -6.3686    5.0030 N.ar      1 <0>        -0.5457
     21 C11         5.1193   -7.3978    5.4275 C.ar      1 <0>         0.4194
     22 N5          5.4793   -8.3921    4.6207 N.ar      1 <0>        -0.5847
     23 C12         5.1225   -8.4012    3.3426 C.ar      1 <0>         0.5137
     24 N6          5.5033   -9.4390    2.5100 N.pl3     1 <0>        -0.8171
     25 C13         5.5362   -7.4413    6.8434 C.2       1 <0>        -0.1170
     26 C14         6.2574   -8.4607    7.2915 C.2       1 <0>        -0.0796
     27 C15         6.6829   -8.5051    8.7365 C.3       1 <0>        -0.0977
     28 C16         6.2197   -9.8212    9.3644 C.3       1 <0>        -0.1088
     29 C17         6.6517   -9.8662   10.8315 C.3       1 <0>        -0.0822
     30 C18         6.1954  -11.1626   11.4499 C.ar      1 <0>        -0.0817
     31 C19         4.9518  -11.2429   12.0482 C.ar      1 <0>        -0.1183
     32 C20         4.5333  -12.4320   12.6155 C.ar      1 <0>        -0.1185
     33 C21         5.3581  -13.5408   12.5840 C.ar      1 <0>        -0.1261
     34 C22         6.6013  -13.4607   11.9849 C.ar      1 <0>        -0.1186
     35 C23         7.0181  -12.2728   11.4138 C.ar      1 <0>        -0.1184
     36 O3          3.9577   -2.4955    4.7605 O.3       1 <0>        -0.5312
     37 O4          3.3149   -0.6324    3.0619 O.3       1 <0>        -0.5362
     38 H5          1.0039    1.9031    0.0027 H         1 <0>         0.0637
     39 H6         -0.5459    1.8868   -0.8726 H         1 <0>         0.0792
     40 H7         -0.5289    1.8773    0.9072 H         1 <0>         0.0645
     41 H8         -1.0205   -0.3814    0.0098 H         1 <0>         0.0730
     42 H9          0.5123   -0.3556   -0.8948 H         1 <0>         0.0727
     43 H10         1.0768    0.1425    1.8273 H         1 <0>         0.3979
     44 H11         2.7020   -5.3822    0.9075 H         1 <0>         0.2246
     45 H12         5.2456   -9.4300    1.5749 H         1 <0>         0.4197
     46 H13         6.0277  -10.1754    2.8615 H         1 <0>         0.4106
     47 H14         5.2541   -6.6433    7.5141 H         1 <0>         0.1365
     48 H15         6.5396   -9.2588    6.6208 H         1 <0>         0.1288
     49 H16         7.7690   -8.4357    8.7978 H         1 <0>         0.0817
     50 H17         6.2346   -7.6689    9.2732 H         1 <0>         0.0732
     51 H18         5.1336   -9.8905    9.3032 H         1 <0>         0.0666
     52 H19         6.6680  -10.6574    8.8278 H         1 <0>         0.0675
     53 H20         7.7377   -9.7969   10.8927 H         1 <0>         0.0736
     54 H21         6.2034   -9.0301   11.3681 H         1 <0>         0.0735
     55 H22         4.3074  -10.3766   12.0729 H         1 <0>         0.1209
     56 H23         3.5620  -12.4946   13.0836 H         1 <0>         0.1210
     57 H24         5.0314  -14.4697   13.0279 H         1 <0>         0.1203
     58 H25         7.2459  -14.3270   11.9606 H         1 <0>         0.1210
     59 H26         7.9878  -12.2113   10.9424 H         1 <0>         0.1211
     60 H27         4.5648   -1.7431    4.7827 H         1 <0>         0.3967
     61 H28         2.8575    0.0683    2.5773 H         1 <0>         0.3841
@<TRIPOS>BOND
     1    1    2 1
     2    1   38 1
     3    1   39 1
     4    1   40 1
     5    2    3 1
     6    2   41 1
     7    2   42 1
     8    3    4 am
     9    3   43 1
    10    4    5 2
    11    4    6 1
    12    6    7 1
    13    6   14 1
    14    6    8 1
    15    8    9 1
    16    8   10 1
    17    8   37 1
    18   10   11 1
    19   10   12 1
    20   10   36 1
    21   12   13 1
    22   12   14 1
    23   12   15 1
    24   15   19 1
    25   15   16 1
    26   16   17 2
    27   16   44 1
    28   17   18 1
    29   18   23 ar
    30   18   19 ar
    31   19   20 ar
    32   20   21 ar
    33   21   22 ar
    34   21   25 1
    35   22   23 ar
    36   23   24 1
    37   24   45 1
    38   24   46 1
    39   25   26 2
    40   25   47 1
    41   26   27 1
    42   26   48 1
    43   27   28 1
    44   27   49 1
    45   27   50 1
    46   28   29 1
    47   28   51 1
    48   28   52 1
    49   29   30 1
    50   29   53 1
    51   29   54 1
    52   30   35 ar
    53   30   31 ar
    54   31   32 ar
    55   31   55 1
    56   32   33 ar
    57   32   56 1
    58   33   34 ar
    59   33   57 1
    60   34   35 ar
    61   34   58 1
    62   35   59 1
    63   36   60 1
    64   37   61 1
