@<TRIPOS>MOLECULE
CHEMBL480542
   57    61     0     0     0
SMALL
USER_CHARGES

@<TRIPOS>ATOM
      1 C1         -0.0178    1.4608    0.0101 C.3       1 <0>         0.0834
      2 N1          0.0021   -0.0041    0.0020 N.pl3     1 <0>        -0.5929
      3 C2          0.0241   -0.7433    1.2666 C.3       1 <0>         0.1073
      4 C3         -1.4105   -1.0203    1.7205 C.3       1 <0>        -0.0322
      5 N2         -1.3884   -1.7615    2.9886 N.4       1 <0>        -0.3753
      6 C4         -0.7772   -3.0791    2.7727 C.3       1 <0>        -0.0282
      7 C5         -0.6491   -3.8076    4.1146 C.3       1 <0>         0.1200
      8 N3         -1.9750   -3.8502    4.7506 N.pl3     1 <0>        -0.6721
      9 C6         -2.7316   -2.5934    4.8607 C.3       1 <0>         0.1197
     10 C7         -2.7614   -1.9222    3.4836 C.3       1 <0>        -0.0226
     11 C8         -2.5018   -5.0526    5.2368 C.ar      1 <0>         0.1007
     12 C9         -2.2621   -5.4363    6.5490 C.ar      1 <0>        -0.0567
     13 C10        -2.7829   -6.6234    7.0272 C.ar      1 <0>        -0.1536
     14 C11        -3.5434   -7.4312    6.1989 C.ar      1 <0>         0.1467
     15 C12        -3.7843   -7.0521    4.8892 C.ar      1 <0>        -0.1870
     16 C13        -3.2709   -5.8617    4.4078 C.ar      1 <0>         0.1272
     17 F1         -3.5111   -5.4883    3.1318 F         1 <0>        -0.1301
     18 F2         -4.0508   -8.5916    6.6693 F         1 <0>        -0.1206
     19 C14         0.0000   -0.6913   -1.2033 C.2       1 <0>         0.4588
     20 C15        -0.0151    0.0079   -2.3950 C.2       1 <0>        -0.2938
     21 C16        -0.0168   -0.7184   -3.5977 C.2       1 <0>         0.3790
     22 N4         -0.0296   -0.3719   -4.8761 N.2       1 <0>        -0.5281
     23 C17        -0.0249   -1.4713   -5.6379 C.2       1 <0>         0.3708
     24 N5         -0.0090   -2.5406   -4.8638 N.2       1 <0>        -0.3219
     25 N6         -0.0034   -2.0891   -3.5380 N.pl3     1 <0>        -0.3764
     26 C18         0.0112   -2.7159   -2.3298 C.2       1 <0>         0.6892
     27 N7          0.0182   -2.0297   -1.2085 N.2       1 <0>        -0.6050
     28 N8          0.0246   -4.0897   -2.2814 N.pl3     1 <0>        -0.8024
     29 C19        -0.0362   -1.4867   -7.1161 C.2       1 <0>        -0.0034
     30 C20        -0.0471   -0.4051   -7.9365 C.2       1 <0>         0.0530
     31 N9         -0.0541   -0.8563   -9.1994 N.2       1 <0>        -0.4885
     32 C21        -0.0480   -2.1600   -9.1822 C.2       1 <0>         0.2103
     33 O1         -0.0318   -2.5801   -7.9103 O.3       1 <0>        -0.1882
     34 H1          1.0048    1.8381    0.0023 H         1 <0>         0.0713
     35 H2         -0.5450    1.8219   -0.8730 H         1 <0>         0.0883
     36 H3         -0.5280    1.8123    0.9069 H         1 <0>         0.0791
     37 H4          0.5496   -1.6879    1.1262 H         1 <0>         0.1076
     38 H5          0.5371   -0.1514    2.0246 H         1 <0>         0.1002
     39 H6         -1.9359   -0.0757    1.8610 H         1 <0>         0.1319
     40 H7         -1.9235   -1.6122    0.9626 H         1 <0>         0.1315
     41 H8         -1.4037   -3.6645    2.0997 H         1 <0>         0.1328
     42 H9          0.2115   -2.9532    2.3316 H         1 <0>         0.1400
     43 H10        -0.2905   -4.8232    3.9472 H         1 <0>         0.1163
     44 H11         0.0485   -3.2710    4.7576 H         1 <0>         0.0842
     45 H12        -3.7498   -2.8062    5.1865 H         1 <0>         0.1165
     46 H13        -2.2443   -1.9342    5.5790 H         1 <0>         0.0845
     47 H14        -3.2348   -0.9438    3.5663 H         1 <0>         0.1383
     48 H15        -3.3279   -2.5426    2.7891 H         1 <0>         0.1311
     49 H16        -1.6685   -4.8074    7.1959 H         1 <0>         0.1475
     50 H17        -2.5962   -6.9217    8.0482 H         1 <0>         0.1517
     51 H18        -4.3772   -7.6841    4.2446 H         1 <0>         0.1547
     52 H19        -0.0257    1.0879   -2.4018 H         1 <0>         0.1648
     53 H20         0.0236   -4.6040   -3.1038 H         1 <0>         0.4300
     54 H21         0.0350   -4.5448   -1.4248 H         1 <0>         0.4268
     55 H22        -0.0496    0.6300   -7.6283 H         1 <0>         0.2000
     56 H23        -0.0513   -2.7984  -10.0533 H         1 <0>         0.2623
     57 H24        -0.8454   -1.2488    3.6671 H         1 <0>         0.4216
@<TRIPOS>BOND
     1    1    2 1
     2    1   34 1
     3    1   35 1
     4    1   36 1
     5    2    3 1
     6    2   19 1
     7    3    4 1
     8    3   37 1
     9    3   38 1
    10    4    5 1
    11    4   39 1
    12    4   40 1
    13    5   10 1
    14    5    6 1
    15    5   57 1
    16    6    7 1
    17    6   41 1
    18    6   42 1
    19    7    8 1
    20    7   43 1
    21    7   44 1
    22    8    9 1
    23    8   11 1
    24    9   10 1
    25    9   45 1
    26    9   46 1
    27   10   47 1
    28   10   48 1
    29   11   16 ar
    30   11   12 ar
    31   12   13 ar
    32   12   49 1
    33   13   14 ar
    34   13   50 1
    35   14   15 ar
    36   14   18 1
    37   15   16 ar
    38   15   51 1
    39   16   17 1
    40   19   27 1
    41   19   20 2
    42   20   21 1
    43   20   52 1
    44   21   25 1
    45   21   22 2
    46   22   23 1
    47   23   24 2
    48   23   29 1
    49   24   25 1
    50   25   26 1
    51   26   27 2
    52   26   28 1
    53   28   53 1
    54   28   54 1
    55   29   33 1
    56   29   30 2
    57   30   31 1
    58   30   55 1
    59   31   32 2
    60   32   33 1
    61   32   56 1
