@<TRIPOS>MOLECULE
CHEMBL293102
   63    65     0     0     0
SMALL
USER_CHARGES

@<TRIPOS>ATOM
      1 C1         -0.0187    1.5258    0.0104 C.3       1 <0>        -0.1450
      2 C2          0.0021   -0.0041    0.0020 C.3       1 <0>        -0.1343
      3 C3          0.7182   -0.4975   -1.2568 C.3       1 <0>         0.0995
      4 N1          0.7381   -1.9623   -1.2648 N.pl3     1 <0>        -0.4474
      5 C4         -0.2983   -2.6652   -1.8593 C.2       1 <0>         0.3084
      6 C5         -0.2546   -4.0559   -1.8535 C.2       1 <0>        -0.1225
      7 C6          0.8391   -4.7067   -1.2454 C.2       1 <0>         0.5795
      8 O1          0.9000   -5.9233   -1.2280 O.2       1 <0>        -0.4929
      9 N2          1.8174   -3.9666   -0.6837 N.am      1 <0>        -0.4995
     10 C7          1.7655   -2.6236   -0.6998 C.2       1 <0>         0.5213
     11 S1          3.0359   -1.7312    0.0218 S.2       1 <0>        -0.5253
     12 C8          2.9558   -4.6370   -0.0507 C.3       1 <0>         0.0955
     13 C9          4.0607   -4.8533   -1.0867 C.3       1 <0>        -0.1338
     14 C10         5.2497   -5.5535   -0.4256 C.3       1 <0>        -0.1458
     15 N3         -1.3963   -4.4865   -2.5032 N.pl3     1 <0>        -0.5142
     16 C11        -2.0820   -3.3699   -2.8748 C.2       1 <0>         0.3496
     17 N4         -1.4165   -2.3000   -2.4850 N.2       1 <0>        -0.4757
     18 H1         -1.6583   -5.4065   -2.6639 H         1 <0>         0.4395
     19 C12        -3.3686   -3.3590   -3.5998 C.ar      1 <0>        -0.0715
     20 C13        -3.9825   -4.5623   -3.9550 C.ar      1 <0>        -0.0520
     21 C14        -5.1830   -4.5479   -4.6308 C.ar      1 <0>        -0.1389
     22 C15        -5.7830   -3.3385   -4.9591 C.ar      1 <0>         0.1497
     23 C16        -5.1756   -2.1394   -4.6075 C.ar      1 <0>        -0.2100
     24 C17        -3.9778   -2.1453   -3.9269 C.ar      1 <0>        -0.0181
     25 O2         -6.9660   -3.3285   -5.6256 O.3       1 <0>        -0.2860
     26 C18        -7.5274   -2.0505   -5.9315 C.3       1 <0>         0.0396
     27 C19        -8.8296   -2.2369   -6.6669 C.2       1 <0>         0.5235
     28 O3         -9.2367   -3.3541   -6.9054 O.2       1 <0>        -0.4948
     29 N5         -9.5417   -1.1620   -7.0593 N.am      1 <0>        -0.7323
     30 C20       -10.8076   -1.3432   -7.7742 C.3       1 <0>         0.0950
     31 C21       -11.4087    0.0251   -8.1017 C.3       1 <0>        -0.0222
     32 N6        -12.6780   -0.1566   -8.8185 N.4       1 <0>        -0.5053
     33 C22       -13.2552    1.1572   -9.1330 C.3       1 <0>        -0.0464
     34 H2          1.0039    1.9031    0.0027 H         1 <0>         0.0643
     35 H3         -0.5459    1.8868   -0.8726 H         1 <0>         0.0560
     36 H4         -0.5289    1.8773    0.9072 H         1 <0>         0.0622
     37 H5          0.5293   -0.3651    0.8851 H         1 <0>         0.0779
     38 H6         -1.0205   -0.3814    0.0098 H         1 <0>         0.0636
     39 H7          0.1910   -0.1364   -2.1398 H         1 <0>         0.1016
     40 H8          1.7408   -0.1202   -1.2645 H         1 <0>         0.1269
     41 H9          3.3360   -4.0180    0.7620 H         1 <0>         0.1286
     42 H10         2.6356   -5.6005    0.3456 H         1 <0>         0.1045
     43 H11         3.6806   -5.4723   -1.8994 H         1 <0>         0.0627
     44 H12         4.3809   -3.8898   -1.4831 H         1 <0>         0.0779
     45 H13         4.9295   -6.5171   -0.0293 H         1 <0>         0.0574
     46 H14         6.0368   -5.7076   -1.1637 H         1 <0>         0.0628
     47 H15         5.6298   -4.9345    0.3871 H         1 <0>         0.0644
     48 H16        -3.5165   -5.5028   -3.7005 H         1 <0>         0.1346
     49 H17        -5.6581   -5.4778   -4.9062 H         1 <0>         0.1457
     50 H18        -5.6451   -1.2014   -4.8648 H         1 <0>         0.1381
     51 H19        -3.5085   -1.2128   -3.6501 H         1 <0>         0.1482
     52 H20        -7.7075   -1.5020   -5.0070 H         1 <0>         0.1031
     53 H21        -6.8337   -1.4893   -6.5576 H         1 <0>         0.1031
     54 H22        -9.2160   -0.2684   -6.8685 H         1 <0>         0.4110
     55 H23       -10.6274   -1.8917   -8.6987 H         1 <0>         0.0929
     56 H24       -11.5013   -1.9043   -7.1481 H         1 <0>         0.0929
     57 H25       -11.5888    0.5736   -7.1771 H         1 <0>         0.1405
     58 H26       -10.7150    0.5863   -8.7278 H         1 <0>         0.1405
     59 H27       -12.5113   -0.6643   -9.6743 H         1 <0>         0.4346
     60 H28       -13.4353    1.7056   -8.2084 H         1 <0>         0.1257
     61 H29       -12.5615    1.7183   -9.7590 H         1 <0>         0.1256
     62 H30       -14.1970    1.0224   -9.6648 H         1 <0>         0.1310
     63 H31       -13.3202   -0.6760   -8.2389 H         1 <0>         0.4346
@<TRIPOS>BOND
     1    1    2 1
     2    1   34 1
     3    1   35 1
     4    1   36 1
     5    2    3 1
     6    2   37 1
     7    2   38 1
     8    3   39 1
     9    3   40 1
    10    3    4 1
    11    4    5 1
    12    4   10 1
    13    5   17 1
    14    5    6 2
    15    6    7 1
    16    6   15 1
    17    7    9 am
    18    7    8 2
    19    9   10 1
    20    9   12 1
    21   10   11 2
    22   12   13 1
    23   12   41 1
    24   12   42 1
    25   13   14 1
    26   13   43 1
    27   13   44 1
    28   14   45 1
    29   14   46 1
    30   14   47 1
    31   15   18 1
    32   15   16 1
    33   16   19 1
    34   16   17 2
    35   19   24 ar
    36   19   20 ar
    37   20   21 ar
    38   20   48 1
    39   21   22 ar
    40   21   49 1
    41   22   23 ar
    42   22   25 1
    43   23   24 ar
    44   23   50 1
    45   24   51 1
    46   25   26 1
    47   26   27 1
    48   26   52 1
    49   26   53 1
    50   27   28 2
    51   27   29 am
    52   29   30 1
    53   29   54 1
    54   30   31 1
    55   30   55 1
    56   30   56 1
    57   31   32 1
    58   31   57 1
    59   31   58 1
    60   32   33 1
    61   32   59 1
    62   32   63 1
    63   33   60 1
    64   33   61 1
    65   33   62 1
