@<TRIPOS>MOLECULE
CHEMBL222589
   52    56     0     0     0
SMALL
USER_CHARGES

@<TRIPOS>ATOM
      1 C1         -0.0162    1.3433    0.0094 C.2       1 <0>        -0.2201
      2 C2          1.3252    1.7744   -0.0011 C.2       1 <0>        -0.1184
      3 C3          2.0963    0.6547   -0.0144 C.2       1 <0>         0.0219
      4 O1          1.2798   -0.4167   -0.0124 O.3       1 <0>        -0.1596
      5 C4          0.0021   -0.0041    0.0020 C.2       1 <0>         0.0053
      6 C5          3.5735    0.6192   -0.0292 C.2       1 <0>         0.3475
      7 N1          4.3782    1.6975   -0.0257 N.2       1 <0>        -0.4773
      8 C6          5.6284    1.3133   -0.0438 C.2       1 <0>         0.4922
      9 N2          6.7827    2.0136   -0.0426 N.2       1 <0>        -0.5220
     10 C7          7.9149    1.3544   -0.2245 C.2       1 <0>         0.6672
     11 N3          7.9251    0.0030   -0.4737 N.pl3     1 <0>        -0.6588
     12 C8          6.8335   -0.7612   -0.0614 C.2       1 <0>         0.6255
     13 N4          5.6350   -0.0666   -0.0535 N.pl3     1 <0>        -0.4275
     14 N5          4.3125   -0.4776   -0.0421 N.2       1 <0>        -0.2688
     15 N6          6.9320   -2.0133    0.2840 N.2       1 <0>        -0.6639
     16 N7          9.1029    2.0335   -0.1638 N.pl3     1 <0>        -0.6010
     17 C9         10.3866    1.3423   -0.3661 C.3       1 <0>         0.0883
     18 C10        11.3005    1.6893    0.8113 C.3       1 <0>        -0.0199
     19 N8         11.4311    3.1501    0.9330 N.4       1 <0>        -0.3796
     20 C11        12.3915    3.4256    2.0122 C.3       1 <0>        -0.0015
     21 C12        12.6152    4.9311    2.1496 C.3       1 <0>        -0.1426
     22 H1         12.9941    5.3316    1.2093 H         1 <0>         0.1213
     23 C13        11.2787    5.5987    2.4911 C.3       1 <0>        -0.1487
     24 C14        10.2734    5.2712    1.3860 C.3       1 <0>        -0.1388
     25 C15        10.1305    3.7519    1.2449 C.3       1 <0>         0.0122
     26 H2          9.7485    3.3332    2.1760 H         1 <0>         0.1502
     27 C16         9.1400    3.4780    0.0994 C.3       1 <0>         0.1100
     28 C17        13.6263    5.1997    3.2660 C.3       1 <0>         0.0004
     29 N9         13.9298    6.6361    3.3166 N.4       1 <0>        -0.6383
     30 H3         -0.8931    1.9736    0.0252 H         1 <0>         0.1631
     31 H4          1.6735    2.7967    0.0011 H         1 <0>         0.1631
     32 H5         -0.8667   -0.6456    0.0069 H         1 <0>         0.2175
     33 H6          6.1427   -2.5028    0.5637 H         1 <0>         0.3875
     34 H7         10.2237    0.2651   -0.4012 H         1 <0>         0.1322
     35 H8         10.8427    1.6772   -1.2978 H         1 <0>         0.1159
     36 H9         10.8752    1.2862    1.7304 H         1 <0>         0.1420
     37 H10        12.2846    1.2505    0.6469 H         1 <0>         0.1565
     38 H11        12.0025    3.0313    2.9510 H         1 <0>         0.1417
     39 H12        13.3399    2.9391    1.7844 H         1 <0>         0.1455
     40 H13        10.9121    5.2172    3.4440 H         1 <0>         0.1020
     41 H14        11.4145    6.6783    2.5540 H         1 <0>         0.0969
     42 H15         9.3052    5.7042    1.6374 H         1 <0>         0.1313
     43 H16        10.6225    5.6913    0.4427 H         1 <0>         0.1001
     44 H17         9.4633    4.0037   -0.7990 H         1 <0>         0.1067
     45 H18         8.1461    3.8217    0.3858 H         1 <0>         0.1556
     46 H19        13.2060    4.8834    4.2207 H         1 <0>         0.1468
     47 H20        14.5417    4.6416    3.0692 H         1 <0>         0.1478
     48 H21        14.5966    6.8133    4.0528 H         1 <0>         0.4513
     49 H22        14.3189    6.9290    2.4328 H         1 <0>         0.4402
     50 H23        13.0825    7.1527    3.4987 H         1 <0>         0.4376
     51 H24         8.6760   -0.4109   -0.9272 H         1 <0>         0.4370
     52 H25        11.7789    3.5306    0.0656 H         1 <0>         0.4265
@<TRIPOS>BOND
     1    1    5 2
     2    1    2 1
     3    1   30 1
     4    2    3 2
     5    2   31 1
     6    3    4 1
     7    3    6 1
     8    4    5 1
     9    5   32 1
    10    6   14 2
    11    6    7 1
    12    7    8 2
    13    8   13 1
    14    8    9 1
    15    9   10 2
    16   10   11 1
    17   10   16 1
    18   11   12 1
    19   11   51 1
    20   12   13 1
    21   12   15 2
    22   13   14 1
    23   15   33 1
    24   16   27 1
    25   16   17 1
    26   17   18 1
    27   17   34 1
    28   17   35 1
    29   18   19 1
    30   18   36 1
    31   18   37 1
    32   19   25 1
    33   19   20 1
    34   19   52 1
    35   20   21 1
    36   20   38 1
    37   20   39 1
    38   21   22 1
    39   21   23 1
    40   21   28 1
    41   23   24 1
    42   23   40 1
    43   23   41 1
    44   24   25 1
    45   24   42 1
    46   24   43 1
    47   25   26 1
    48   25   27 1
    49   27   44 1
    50   27   45 1
    51   28   29 1
    52   28   46 1
    53   28   47 1
    54   29   48 1
    55   29   49 1
    56   29   50 1
