@<TRIPOS>MOLECULE
CHEMBL519111
   53    58     0     0     0
SMALL
USER_CHARGES

@<TRIPOS>ATOM
      1 C1         -0.0184    1.5028    0.0103 C.3       1 <0>        -0.1072
      2 C2          0.0021   -0.0041    0.0020 C.ar      1 <0>         0.1277
      3 C3          0.0055   -0.6782   -1.2057 C.ar      1 <0>        -0.1681
      4 C4          0.0243   -2.0622   -1.2084 C.ar      1 <0>        -0.0639
      5 C5          0.0392   -2.7274    0.0207 C.ar      1 <0>        -0.1052
      6 C6          0.0345   -1.9759    1.1936 C.ar      1 <0>         0.1152
      7 N1          0.0218   -0.6593    1.1464 N.ar      1 <0>        -0.4818
      8 C7          0.0591   -4.2102    0.0754 C.ar      1 <0>        -0.0400
      9 C8          0.0689   -4.9533   -1.1032 C.ar      1 <0>        -0.1072
     10 C9          0.0874   -6.3322   -1.0465 C.ar      1 <0>        -0.1064
     11 C10         0.0957   -6.9765    0.1774 C.ar      1 <0>        -0.0816
     12 C11         0.0856   -6.2438    1.3506 C.ar      1 <0>        -0.1057
     13 C12         0.0738   -4.8644    1.3056 C.ar      1 <0>        -0.1071
     14 C13         0.1154   -8.4824    0.2330 C.3       1 <0>        -0.0960
     15 C14         1.5644   -8.9731    0.2518 C.3       1 <0>         0.1441
     16 N2          1.5836  -10.4370    0.3058 N.pl3     1 <0>        -0.3551
     17 C15         1.5879  -11.1944    1.4387 C.2       1 <0>         0.3705
     18 C16         1.6072  -12.5344    1.0229 C.2       1 <0>        -0.2670
     19 C17         1.6140  -12.5361   -0.3835 C.2       1 <0>         0.1314
     20 N3          1.5944  -11.2989   -0.7979 N.2       1 <0>        -0.2632
     21 C18         1.6161  -13.5734    2.0533 C.2       1 <0>         0.4065
     22 N4          1.6334  -14.8900    2.0347 N.2       1 <0>        -0.5160
     23 C19         1.6338  -15.3576    3.2896 C.2       1 <0>         0.3508
     24 N5          1.6168  -14.3420    4.1322 N.2       1 <0>        -0.2995
     25 N6          1.6050  -13.1711    3.3635 N.pl3     1 <0>        -0.3764
     26 C20         1.5859  -11.8410    3.6683 C.2       1 <0>         0.6922
     27 N7          1.5779  -10.9082    2.7480 N.2       1 <0>        -0.5615
     28 N8          1.5750  -11.4653    4.9913 N.pl3     1 <0>        -0.8020
     29 C21         1.6507  -16.7854    3.6707 C.2       1 <0>         0.0421
     30 C22         1.6459  -17.2724    4.9399 C.2       1 <0>        -0.1370
     31 C23         1.6661  -18.6774    4.8356 C.2       1 <0>        -0.2200
     32 C24         1.6821  -18.9755    3.5216 C.2       1 <0>        -0.0040
     33 O1          1.6677  -17.8303    2.8208 O.3       1 <0>        -0.1521
     34 H1          1.0042    1.8801    0.0026 H         1 <0>         0.0801
     35 H2         -0.5455    1.8639   -0.8728 H         1 <0>         0.0763
     36 H3         -0.5286    1.8543    0.9071 H         1 <0>         0.0786
     37 H4         -0.0067   -0.1307   -2.1365 H         1 <0>         0.1382
     38 H5          0.0270   -2.6142   -2.1367 H         1 <0>         0.1377
     39 H6          0.0459   -2.4770    2.1503 H         1 <0>         0.1581
     40 H7          0.0617   -4.4512   -2.0594 H         1 <0>         0.1263
     41 H8          0.0950   -6.9091   -1.9594 H         1 <0>         0.1280
     42 H9          0.0918   -6.7520    2.3035 H         1 <0>         0.1278
     43 H10         0.0708   -4.2932    2.2222 H         1 <0>         0.1278
     44 H11        -0.3941   -8.8193    1.1357 H         1 <0>         0.0810
     45 H12        -0.3932   -8.8849   -0.6431 H         1 <0>         0.0850
     46 H13         2.0740   -8.6361   -0.6509 H         1 <0>         0.1038
     47 H14         2.0730   -8.5705    1.1279 H         1 <0>         0.1018
     48 H15         1.6287  -13.4129   -1.0138 H         1 <0>         0.2025
     49 H16         1.5810  -12.1409    5.6873 H         1 <0>         0.4265
     50 H17         1.5614  -10.5248    5.2283 H         1 <0>         0.4304
     51 H18         1.6300  -16.6942    5.8519 H         1 <0>         0.1599
     52 H19         1.6687  -19.3821    5.6540 H         1 <0>         0.1595
     53 H20         1.6996  -19.9704    3.1018 H         1 <0>         0.2142
@<TRIPOS>BOND
     1    1    2 1
     2    1   34 1
     3    1   35 1
     4    1   36 1
     5    2    7 ar
     6    2    3 ar
     7    3    4 ar
     8    3   37 1
     9    4    5 ar
    10    4   38 1
    11    5    6 ar
    12    5    8 1
    13    6    7 ar
    14    6   39 1
    15    8   13 ar
    16    8    9 ar
    17    9   10 ar
    18    9   40 1
    19   10   11 ar
    20   10   41 1
    21   11   12 ar
    22   11   14 1
    23   12   13 ar
    24   12   42 1
    25   13   43 1
    26   14   15 1
    27   14   44 1
    28   14   45 1
    29   15   16 1
    30   15   46 1
    31   15   47 1
    32   16   20 1
    33   16   17 1
    34   17   27 1
    35   17   18 2
    36   18   19 1
    37   18   21 1
    38   19   20 2
    39   19   48 1
    40   21   25 1
    41   21   22 2
    42   22   23 1
    43   23   24 2
    44   23   29 1
    45   24   25 1
    46   25   26 1
    47   26   27 2
    48   26   28 1
    49   28   49 1
    50   28   50 1
    51   29   33 1
    52   29   30 2
    53   30   31 1
    54   30   51 1
    55   31   32 2
    56   31   52 1
    57   32   33 1
    58   32   53 1
