@<TRIPOS>MOLECULE
CHEMBL361826
   66    70     0     0     0
SMALL
USER_CHARGES

@<TRIPOS>ATOM
      1 C1         -0.0187    1.5258    0.0104 C.3       1 <0>        -0.1472
      2 C2          0.0021   -0.0041    0.0020 C.3       1 <0>        -0.1385
      3 C3         -1.4333   -0.5336    0.0129 C.3       1 <0>         0.1189
      4 N1         -1.4134   -1.9985    0.0048 N.am      1 <0>        -0.5083
      5 C4         -1.3926   -2.6971    1.2022 C.2       1 <0>         0.3303
      6 C5         -1.3740   -4.0878    1.1662 C.2       1 <0>        -0.1473
      7 C6         -1.3769   -4.7431   -0.0825 C.2       1 <0>         0.5934
      8 O1         -1.3613   -5.9599   -0.1397 O.2       1 <0>        -0.5111
      9 N2         -1.3976   -4.0074   -1.2132 N.am      1 <0>        -0.5485
     10 C7         -1.4210   -2.6643   -1.1652 C.2       1 <0>         0.7077
     11 O2         -1.4448   -2.0346   -2.2051 O.2       1 <0>        -0.5285
     12 C8         -1.4003   -4.6827   -2.5132 C.3       1 <0>         0.1137
     13 C9         -2.8435   -4.9380   -2.9524 C.3       1 <0>        -0.1379
     14 C10        -2.8462   -5.6433   -4.3101 C.3       1 <0>        -0.1473
     15 N3         -1.3557   -4.5135    2.4813 N.pl3     1 <0>        -0.5165
     16 C11        -1.3636   -3.3941    3.2571 C.2       1 <0>         0.3498
     17 N4         -1.3855   -2.3271    2.4822 N.2       1 <0>        -0.4850
     18 H1         -1.3406   -5.4324    2.7917 H         1 <0>         0.4363
     19 C12        -1.3506   -3.3777    4.7338 C.ar      1 <0>        -0.0760
     20 C13        -1.3225   -4.5782    5.4473 C.ar      1 <0>        -0.0539
     21 C14        -1.3105   -4.5586    6.8248 C.ar      1 <0>        -0.1430
     22 C15        -1.3267   -3.3469    7.5043 C.ar      1 <0>         0.1577
     23 C16        -1.3551   -2.1506    6.7984 C.ar      1 <0>        -0.2087
     24 C17        -1.3606   -2.1615    5.4207 C.ar      1 <0>        -0.0173
     25 O3         -1.3153   -3.3318    8.8621 O.3       1 <0>        -0.3019
     26 C18        -1.3331   -2.0517    9.4968 C.3       1 <0>         0.1487
     27 C19        -1.3169   -2.2325   10.9929 C.2       1 <0>         0.2507
     28 N5         -2.3956   -2.3504   11.7699 N.2       1 <0>        -0.5347
     29 C20        -2.0314   -2.4944   13.0253 C.2       1 <0>         0.3553
     30 O4         -0.6878   -2.4704   13.0730 O.3       1 <0>        -0.0718
     31 N6         -0.2473   -2.3042   11.7336 N.2       1 <0>        -0.3218
     32 C21        -2.9381   -2.6534   14.1791 C.ar      1 <0>        -0.0927
     33 C22        -4.3214   -2.6661   13.9885 C.ar      1 <0>        -0.0127
     34 C23        -5.1629   -2.8155   15.0701 C.ar      1 <0>        -0.1643
     35 C24        -4.6424   -2.9527   16.3462 C.ar      1 <0>        -0.0377
     36 C25        -3.2761   -2.9419   16.5482 C.ar      1 <0>        -0.2170
     37 C26        -2.4155   -2.7984   15.4708 C.ar      1 <0>         0.1785
     38 O5         -1.0725   -2.7931   15.6673 O.3       1 <0>        -0.3017
     39 C27        -0.6129   -2.9458   17.0117 C.3       1 <0>         0.0234
     40 H2          1.0039    1.9031    0.0027 H         1 <0>         0.0607
     41 H3         -0.5459    1.8868   -0.8726 H         1 <0>         0.0589
     42 H4         -0.5289    1.8773    0.9072 H         1 <0>         0.0588
     43 H5          0.5123   -0.3556   -0.8948 H         1 <0>         0.0680
     44 H6          0.5293   -0.3651    0.8851 H         1 <0>         0.0682
     45 H7         -1.9435   -0.1821    0.9097 H         1 <0>         0.0989
     46 H8         -1.9605   -0.1726   -0.8702 H         1 <0>         0.1006
     47 H9         -0.9020   -4.0534   -3.2506 H         1 <0>         0.1034
     48 H10        -0.8724   -5.6328   -2.4302 H         1 <0>         0.1016
     49 H11        -3.3418   -5.5673   -2.2150 H         1 <0>         0.0673
     50 H12        -3.3714   -3.9880   -3.0355 H         1 <0>         0.0694
     51 H13        -2.3479   -5.0140   -5.0475 H         1 <0>         0.0598
     52 H14        -2.3183   -6.5933   -4.2271 H         1 <0>         0.0589
     53 H15        -3.8744   -5.8251   -4.6230 H         1 <0>         0.0614
     54 H16        -1.3106   -5.5206    4.9198 H         1 <0>         0.1321
     55 H17        -1.2888   -5.4864    7.3772 H         1 <0>         0.1426
     56 H18        -1.3684   -1.2108    7.3303 H         1 <0>         0.1407
     57 H19        -1.3774   -1.2310    4.8727 H         1 <0>         0.1473
     58 H20        -0.4560   -1.4818    9.1902 H         1 <0>         0.1011
     59 H21        -2.2356   -1.5143    9.2056 H         1 <0>         0.1074
     60 H22        -4.7314   -2.5586   12.9952 H         1 <0>         0.1498
     61 H23        -6.2326   -2.8251   14.9218 H         1 <0>         0.1397
     62 H24        -5.3088   -3.0686   17.1882 H         1 <0>         0.1370
     63 H25        -2.8776   -3.0491   17.5463 H         1 <0>         0.1417
     64 H26        -1.0016   -2.1315   17.6233 H         1 <0>         0.0620
     65 H27        -0.9634   -3.8982   17.4096 H         1 <0>         0.0619
     66 H28         0.4767   -2.9242   17.0279 H         1 <0>         0.1075
@<TRIPOS>BOND
     1    1    2 1
     2    1   40 1
     3    1   41 1
     4    1   42 1
     5    2    3 1
     6    2   43 1
     7    2   44 1
     8    3   45 1
     9    3   46 1
    10    3    4 1
    11    4    5 1
    12    4   10 am
    13    5   17 1
    14    5    6 2
    15    6    7 1
    16    6   15 1
    17    7    9 am
    18    7    8 2
    19    9   10 am
    20    9   12 1
    21   10   11 2
    22   12   13 1
    23   12   47 1
    24   12   48 1
    25   13   14 1
    26   13   49 1
    27   13   50 1
    28   14   51 1
    29   14   52 1
    30   14   53 1
    31   15   18 1
    32   15   16 1
    33   16   19 1
    34   16   17 2
    35   19   24 ar
    36   19   20 ar
    37   20   21 ar
    38   20   54 1
    39   21   22 ar
    40   21   55 1
    41   22   23 ar
    42   22   25 1
    43   23   24 ar
    44   23   56 1
    45   24   57 1
    46   25   26 1
    47   26   27 1
    48   26   58 1
    49   26   59 1
    50   27   31 2
    51   27   28 1
    52   28   29 2
    53   29   30 1
    54   29   32 1
    55   30   31 1
    56   32   37 ar
    57   32   33 ar
    58   33   34 ar
    59   33   60 1
    60   34   35 ar
    61   34   61 1
    62   35   36 ar
    63   35   62 1
    64   36   37 ar
    65   36   63 1
    66   37   38 1
    67   38   39 1
    68   39   64 1
    69   39   65 1
    70   39   66 1
