@<TRIPOS>MOLECULE
CHEMBL185967
   53    58     0     0     0
SMALL
USER_CHARGES

@<TRIPOS>ATOM
      1 C1         -0.0164    1.3573    0.0095 C.ar      1 <0>        -0.1108
      2 C2          1.1698    2.0885    0.0021 C.ar      1 <0>        -0.0928
      3 C3          2.3791    1.4646   -0.0127 C.ar      1 <0>        -0.0927
      4 C4          2.4395    0.0601   -0.0208 C.ar      1 <0>         0.1443
      5 C5          1.2320   -0.6814   -0.0132 C.ar      1 <0>        -0.1029
      6 C6          0.0021   -0.0041    0.0020 C.ar      1 <0>        -0.0939
      7 C7          1.2940   -2.0877   -0.0213 C.ar      1 <0>        -0.0376
      8 C8          2.5248   -2.6788   -0.0361 C.ar      1 <0>        -0.1252
      9 C9          3.6752   -1.8904   -0.0429 C.ar      1 <0>         0.2295
     10 N1          3.6132   -0.5797   -0.0349 N.ar      1 <0>        -0.4675
     11 Cl1         5.2296   -2.6632   -0.0618 Cl        1 <0>        -0.0147
     12 C10         2.6399   -4.1814   -0.0446 C.3       1 <0>         0.0988
     13 N2          3.0218   -4.6356   -1.3885 N.3       1 <0>        -0.5295
     14 C11         1.9579   -4.3539   -2.3615 C.3       1 <0>         0.0373
     15 C12         2.4629   -4.6740   -3.7724 C.3       1 <0>         0.1295
     16 N3          2.9680   -6.0552   -3.7857 N.pl3     1 <0>        -0.5694
     17 C13         3.9369   -6.4518   -2.7526 C.3       1 <0>         0.1119
     18 C14         3.3740   -6.0617   -1.3818 C.3       1 <0>         0.0441
     19 C15         2.5470   -6.9487   -4.7347 C.2       1 <0>         0.6734
     20 N4          3.0364   -8.2324   -4.7126 N.pl3     1 <0>        -0.6627
     21 C16         2.2927   -9.2437   -5.3204 C.2       1 <0>         0.6368
     22 N5          1.5256   -8.8102   -6.3893 N.pl3     1 <0>        -0.4345
     23 C17         1.2225   -7.4719   -6.5332 C.2       1 <0>         0.5171
     24 N6          1.6743   -6.5580   -5.6486 N.2       1 <0>        -0.5466
     25 N7          0.4853   -7.3516   -7.6072 N.2       1 <0>        -0.4990
     26 C18         0.3047   -8.5607   -8.1692 C.2       1 <0>         0.3357
     27 N8          0.9311   -9.4757   -7.4484 N.2       1 <0>        -0.2870
     28 C19        -0.4719   -8.8248   -9.3983 C.2       1 <0>         0.0428
     29 C20        -1.1156   -7.8933  -10.1510 C.2       1 <0>        -0.1303
     30 C21        -1.7205   -8.5830  -11.2204 C.2       1 <0>        -0.2182
     31 C22        -1.4194   -9.8878  -11.0693 C.2       1 <0>        -0.0109
     32 O1         -0.6602  -10.0294   -9.9709 O.3       1 <0>        -0.1610
     33 N9          2.3178  -10.4830   -4.9199 N.2       1 <0>        -0.6842
     34 H1         -0.9628    1.8773    0.0259 H         1 <0>         0.1319
     35 H2          1.1287    3.1677    0.0079 H         1 <0>         0.1346
     36 H3          3.2891    2.0463   -0.0187 H         1 <0>         0.1395
     37 H4         -0.9239   -0.5598    0.0082 H         1 <0>         0.1337
     38 H5          0.3928   -2.6828   -0.0155 H         1 <0>         0.1470
     39 H6          3.3992   -4.4916    0.6732 H         1 <0>         0.0979
     40 H7          1.6806   -4.6208    0.2285 H         1 <0>         0.0549
     41 H8          1.0878   -4.9711   -2.1378 H         1 <0>         0.0471
     42 H9          1.6820   -3.3010   -2.3041 H         1 <0>         0.0943
     43 H10         1.6440   -4.5767   -4.4852 H         1 <0>         0.1165
     44 H11         3.2668   -3.9875   -4.0381 H         1 <0>         0.0885
     45 H12         4.0926   -7.5299   -2.7912 H         1 <0>         0.0881
     46 H13         4.8826   -5.9362   -2.9203 H         1 <0>         0.0987
     47 H14         4.1250   -6.2474   -0.6140 H         1 <0>         0.1010
     48 H15         2.4841   -6.6551   -1.1718 H         1 <0>         0.0476
     49 H16        -1.1559   -6.8302   -9.9648 H         1 <0>         0.1630
     50 H17        -2.3136   -8.1482  -12.0113 H         1 <0>         0.1588
     51 H18        -1.7328  -10.6863  -11.7254 H         1 <0>         0.2124
     52 H19         1.7821  -11.1509   -5.3758 H         1 <0>         0.3779
     53 H20         3.8829   -8.4314   -4.2829 H         1 <0>         0.4368
@<TRIPOS>BOND
     1    1    6 ar
     2    1    2 ar
     3    1   34 1
     4    2    3 ar
     5    2   35 1
     6    3    4 ar
     7    3   36 1
     8    4   10 ar
     9    4    5 ar
    10    5    6 ar
    11    5    7 ar
    12    6   37 1
    13    7    8 ar
    14    7   38 1
    15    8    9 ar
    16    8   12 1
    17    9   10 ar
    18    9   11 1
    19   12   13 1
    20   12   39 1
    21   12   40 1
    22   13   18 1
    23   13   14 1
    24   14   15 1
    25   14   41 1
    26   14   42 1
    27   15   16 1
    28   15   43 1
    29   15   44 1
    30   16   17 1
    31   16   19 1
    32   17   18 1
    33   17   45 1
    34   17   46 1
    35   18   47 1
    36   18   48 1
    37   19   24 2
    38   19   20 1
    39   20   21 1
    40   20   53 1
    41   21   22 1
    42   21   33 2
    43   22   27 1
    44   22   23 1
    45   23   24 1
    46   23   25 2
    47   25   26 1
    48   26   27 2
    49   26   28 1
    50   28   32 1
    51   28   29 2
    52   29   30 1
    53   29   49 1
    54   30   31 2
    55   30   50 1
    56   31   32 1
    57   31   51 1
    58   33   52 1
