@<TRIPOS>MOLECULE
CHEMBL330982
   35    39     0     0     0
SMALL
USER_CHARGES

@<TRIPOS>ATOM
      1 C1         -0.0167    1.3790    0.0096 C.ar      1 <0>        -0.1125
      2 C2          1.1687    2.0918    0.0021 C.ar      1 <0>        -0.1265
      3 C3          2.3774    1.4257   -0.0135 C.ar      1 <0>        -0.0757
      4 C4          2.4021    0.0327   -0.0212 C.ar      1 <0>        -0.0010
      5 C5          1.2052   -0.6804   -0.0131 C.ar      1 <0>        -0.0860
      6 C6          0.0021   -0.0041    0.0020 C.ar      1 <0>        -0.1275
      7 C7          3.6988   -0.6891   -0.0385 C.2       1 <0>         0.2753
      8 N1          4.9027   -0.1127   -0.0420 N.2       1 <0>        -0.5365
      9 C8          5.8415   -1.0433   -0.0581 C.2       1 <0>         0.3714
     10 C9          7.2510   -1.0152   -0.0681 C.2       1 <0>        -0.0316
     11 C10         7.9504   -2.2263   -0.0847 C.2       1 <0>         0.1624
     12 N2          9.2624   -1.9191   -0.0920 N.2       1 <0>        -0.5287
     13 C11         9.4114   -0.6238   -0.0812 C.2       1 <0>         0.1608
     14 N3          8.2010   -0.0207   -0.0662 N.2       1 <0>        -0.5248
     15 N4          7.2705   -3.3858   -0.0902 N.2       1 <0>        -0.4091
     16 C12         5.9592   -3.4125   -0.0803 C.2       1 <0>         0.3456
     17 N5          5.2171   -2.2641   -0.0652 N.pl3     1 <0>        -0.3220
     18 N6          3.8416   -2.0005   -0.0470 N.2       1 <0>        -0.3373
     19 C13         5.2657   -4.7177   -0.0875 C.ar      1 <0>        -0.0308
     20 C14         3.8708   -4.7704   -0.0830 C.ar      1 <0>        -0.1003
     21 C15         3.2298   -5.9920   -0.0897 C.ar      1 <0>        -0.1293
     22 C16         3.9663   -7.1632   -0.1005 C.ar      1 <0>        -0.1148
     23 C17         5.3492   -7.1180   -0.1050 C.ar      1 <0>        -0.1317
     24 C18         6.0027   -5.9030   -0.1047 C.ar      1 <0>        -0.0740
     25 H1         -0.9602    1.9042    0.0260 H         1 <0>         0.1214
     26 H2          1.1483    3.1716    0.0081 H         1 <0>         0.1255
     27 H3          3.3023    1.9832   -0.0200 H         1 <0>         0.1369
     28 H4          1.2187   -1.7603   -0.0194 H         1 <0>         0.1305
     29 H5         -0.9264   -0.5558    0.0079 H         1 <0>         0.1247
     30 H6         10.3607   -0.1089   -0.0834 H         1 <0>         0.1857
     31 H7          3.2947   -3.8569   -0.0738 H         1 <0>         0.1580
     32 H8          2.1506   -6.0341   -0.0862 H         1 <0>         0.1219
     33 H9          3.4596   -8.1169   -0.1050 H         1 <0>         0.1187
     34 H10         5.9182   -8.0359   -0.1134 H         1 <0>         0.1236
     35 H11         7.0822   -5.8691   -0.1127 H         1 <0>         0.1378
@<TRIPOS>BOND
     1    1    6 ar
     2    1    2 ar
     3    1   25 1
     4    2    3 ar
     5    2   26 1
     6    3    4 ar
     7    3   27 1
     8    4    5 ar
     9    4    7 1
    10    5    6 ar
    11    5   28 1
    12    6   29 1
    13    7   18 2
    14    7    8 1
    15    8    9 2
    16    9   17 1
    17    9   10 1
    18   10   14 1
    19   10   11 2
    20   11   12 1
    21   11   15 1
    22   12   13 2
    23   13   14 1
    24   13   30 1
    25   15   16 2
    26   16   17 1
    27   16   19 1
    28   17   18 1
    29   19   24 ar
    30   19   20 ar
    31   20   21 ar
    32   20   31 1
    33   21   22 ar
    34   21   32 1
    35   22   23 ar
    36   22   33 1
    37   23   24 ar
    38   23   34 1
    39   24   35 1
