@<TRIPOS>MOLECULE
CHEMBL21572
   49    54     0     0     0
SMALL
USER_CHARGES

@<TRIPOS>ATOM
      1 C1         -0.0178    1.4608    0.0101 C.3       1 <0>         0.0939
      2 N1          0.0021   -0.0041    0.0020 N.pl3     1 <0>        -0.3426
      3 C2          0.0075   -0.7747   -1.1060 C.2       1 <0>         0.1154
      4 C3          0.0281   -2.0943   -0.6953 C.2       1 <0>        -0.2264
      5 C4          0.0352   -2.0781    0.7767 C.2       1 <0>         0.3248
      6 N2          0.0244   -0.8155    1.1420 N.2       1 <0>        -0.2851
      7 N3          0.0545   -3.2639    1.4369 N.2       1 <0>        -0.4888
      8 C5          0.0669   -4.4084    0.8010 C.2       1 <0>         0.6225
      9 N4          0.0616   -4.5174   -0.5679 N.pl3     1 <0>        -0.3282
     10 C6          0.0433   -3.3991   -1.3595 C.2       1 <0>         0.3738
     11 N5          0.0426   -3.7904   -2.6157 N.2       1 <0>        -0.5112
     12 C7          0.0612   -5.1294   -2.6698 C.2       1 <0>         0.2798
     13 N6          0.0723   -5.6131   -1.4433 N.2       1 <0>        -0.2426
     14 C8          0.0657   -5.9360   -3.9080 C.2       1 <0>         0.0787
     15 C9          0.0791   -7.2938   -3.9757 C.2       1 <0>        -0.1592
     16 C10         0.0786   -7.6321   -5.3435 C.2       1 <0>        -0.2151
     17 C11         0.0651   -6.4761   -6.0360 C.2       1 <0>        -0.0312
     18 O1          0.0514   -5.4537   -5.1657 O.3       1 <0>        -0.1553
     19 N7          0.0865   -5.5509    1.5358 N.2       1 <0>        -0.6275
     20 C12         0.0925   -5.4884    2.8388 C.2       1 <0>         0.4261
     21 O2          0.0793   -4.2921    3.4550 O.3       1 <0>        -0.6260
     22 C13         0.1143   -6.7557    3.6539 C.3       1 <0>        -0.0472
     23 C14         0.1258   -7.9467    2.7306 C.ar      1 <0>        -0.0249
     24 C15        -1.0670   -8.5048    2.3098 C.ar      1 <0>        -0.0945
     25 C16        -1.0616   -9.5970    1.4625 C.ar      1 <0>        -0.0949
     26 C17         0.1405  -10.1356    1.0332 C.ar      1 <0>         0.0158
     27 C18         1.3421   -9.5734    1.4572 C.ar      1 <0>         0.0316
     28 C19         1.3290   -8.4753    2.3018 C.ar      1 <0>        -0.0832
     29 O3          2.3723  -10.2763    0.9023 O.3       1 <0>        -0.3127
     30 C20         1.7965  -11.5213    0.4644 C.3       1 <0>         0.2145
     31 O4          0.4179  -11.1906    0.2127 O.3       1 <0>        -0.3140
     32 S1         -0.0088   -0.2028   -2.7725 S.3       1 <0>        -0.0391
     33 C21         1.5013    0.7929   -2.9096 C.3       1 <0>        -0.1550
     34 H1          1.0048    1.8381    0.0023 H         1 <0>         0.0756
     35 H2         -0.5450    1.8219   -0.8730 H         1 <0>         0.0937
     36 H3         -0.5280    1.8123    0.9069 H         1 <0>         0.0987
     37 H4          0.0886   -7.9805   -3.1421 H         1 <0>         0.1578
     38 H5          0.0879   -8.6291   -5.7584 H         1 <0>         0.1521
     39 H6          0.0614   -6.3870   -7.1123 H         1 <0>         0.2062
     40 H7          1.0079   -6.7710    4.2779 H         1 <0>         0.0917
     41 H8         -0.7719   -6.7955    4.2873 H         1 <0>         0.0942
     42 H9         -2.0051   -8.0867    2.6441 H         1 <0>         0.1308
     43 H10        -1.9949  -10.0309    1.1353 H         1 <0>         0.1272
     44 H11         2.2592   -8.0345    2.6285 H         1 <0>         0.1267
     45 H12         2.2804  -11.8668   -0.4491 H         1 <0>         0.1236
     46 H13         1.8726  -12.2751    1.2480 H         1 <0>         0.0761
     47 H14         1.4616    1.6136   -2.1934 H         1 <0>         0.0774
     48 H15         2.3690    0.1679   -2.6984 H         1 <0>         0.0837
     49 H16         1.5806    1.1955   -3.9194 H         1 <0>         0.1125
@<TRIPOS>BOND
     1    1    2 1
     2    1   34 1
     3    1   35 1
     4    1   36 1
     5    2    6 1
     6    2    3 1
     7    3    4 2
     8    3   32 1
     9    4   10 1
    10    4    5 1
    11    5    6 2
    12    5    7 1
    13    7    8 2
    14    8    9 1
    15    8   19 1
    16    9   13 1
    17    9   10 1
    18   10   11 2
    19   11   12 1
    20   12   13 2
    21   12   14 1
    22   14   18 1
    23   14   15 2
    24   15   16 1
    25   15   37 1
    26   16   17 2
    27   16   38 1
    28   17   18 1
    29   17   39 1
    30   19   20 2
    31   20   21 1
    32   20   22 1
    33   22   23 1
    34   22   40 1
    35   22   41 1
    36   23   28 ar
    37   23   24 ar
    38   24   25 ar
    39   24   42 1
    40   25   26 ar
    41   25   43 1
    42   26   31 1
    43   26   27 ar
    44   27   28 ar
    45   27   29 1
    46   28   44 1
    47   29   30 1
    48   30   31 1
    49   30   45 1
    50   30   46 1
    51   32   33 1
    52   33   47 1
    53   33   48 1
    54   33   49 1
