@<TRIPOS>MOLECULE
CHEMBL360619
   45    49     0     0     0
SMALL
USER_CHARGES

@<TRIPOS>ATOM
      1 C1         -0.0162    1.3433    0.0094 C.2       1 <0>        -0.2183
      2 C2          1.3252    1.7744   -0.0011 C.2       1 <0>        -0.1302
      3 C3          2.0963    0.6547   -0.0144 C.2       1 <0>         0.0428
      4 O1          1.2798   -0.4167   -0.0124 O.3       1 <0>        -0.1610
      5 C4          0.0021   -0.0041    0.0020 C.2       1 <0>        -0.0109
      6 C5          3.5735    0.6192   -0.0292 C.2       1 <0>         0.3357
      7 N1          4.3782    1.6975   -0.0257 N.2       1 <0>        -0.4987
      8 C6          5.6284    1.3133   -0.0438 C.2       1 <0>         0.5171
      9 N2          6.7827    2.0136   -0.0426 N.2       1 <0>        -0.5457
     10 C7          7.9149    1.3544   -0.2245 C.2       1 <0>         0.6731
     11 N3          7.9251    0.0030   -0.4737 N.pl3     1 <0>        -0.6632
     12 C8          6.8335   -0.7612   -0.0614 C.2       1 <0>         0.6368
     13 N4          5.6350   -0.0666   -0.0535 N.pl3     1 <0>        -0.4344
     14 N5          4.3125   -0.4776   -0.0421 N.2       1 <0>        -0.2868
     15 N6          6.9320   -2.0133    0.2840 N.2       1 <0>        -0.6836
     16 N7          9.1029    2.0335   -0.1638 N.pl3     1 <0>        -0.5639
     17 C9         10.3775    1.3308   -0.3677 C.3       1 <0>         0.0929
     18 C10        11.1464    2.0281   -1.4968 C.3       1 <0>         0.1284
     19 N8         11.1692    3.4726   -1.2270 N.pl3     1 <0>        -0.6663
     20 C11         9.8947    4.1753   -1.0231 C.3       1 <0>         0.1268
     21 C12         9.1255    3.4790    0.1004 C.3       1 <0>         0.1068
     22 C13        12.3849    4.1675   -1.1649 C.ar      1 <0>         0.0839
     23 C14        13.0578    4.2863    0.0452 C.ar      1 <0>         0.1570
     24 C15        14.2577    4.9723    0.1035 C.ar      1 <0>        -0.1985
     25 C16        14.7883    5.5403   -1.0422 C.ar      1 <0>         0.1657
     26 C17        14.1198    5.4240   -2.2491 C.ar      1 <0>        -0.1986
     27 C18        12.9224    4.7341   -2.3143 C.ar      1 <0>         0.1586
     28 F1         12.2734    4.6161   -3.4934 F         1 <0>        -0.1138
     29 F2         15.9603    6.2098   -0.9824 F         1 <0>        -0.1186
     30 F3         12.5404    3.7326    1.1637 F         1 <0>        -0.1149
     31 H1         -0.8931    1.9736    0.0252 H         1 <0>         0.1588
     32 H2          1.6735    2.7967    0.0011 H         1 <0>         0.1631
     33 H3         -0.8667   -0.6456    0.0069 H         1 <0>         0.2124
     34 H4          6.1427   -2.5028    0.5637 H         1 <0>         0.3780
     35 H5         10.9647    1.3646    0.5500 H         1 <0>         0.0961
     36 H6         10.1837    0.2941   -0.6430 H         1 <0>         0.0891
     37 H7         12.1668    1.6467   -1.5343 H         1 <0>         0.0928
     38 H8         10.6482    1.8414   -2.4482 H         1 <0>         0.0689
     39 H9         10.0885    5.2120   -0.7479 H         1 <0>         0.0923
     40 H10         9.3074    4.1415   -1.9408 H         1 <0>         0.0697
     41 H11         8.1050    3.8607    0.1342 H         1 <0>         0.1221
     42 H12         9.6215    3.6693    1.0521 H         1 <0>         0.0858
     43 H13        14.7809    5.0652    1.0438 H         1 <0>         0.1584
     44 H14        14.5357    5.8683   -3.1413 H         1 <0>         0.1585
     45 H15         8.6760   -0.4109   -0.9272 H         1 <0>         0.4359
@<TRIPOS>BOND
     1    1    5 2
     2    1    2 1
     3    1   31 1
     4    2    3 2
     5    2   32 1
     6    3    4 1
     7    3    6 1
     8    4    5 1
     9    5   33 1
    10    6   14 2
    11    6    7 1
    12    7    8 2
    13    8   13 1
    14    8    9 1
    15    9   10 2
    16   10   11 1
    17   10   16 1
    18   11   12 1
    19   11   45 1
    20   12   13 1
    21   12   15 2
    22   13   14 1
    23   15   34 1
    24   16   21 1
    25   16   17 1
    26   17   18 1
    27   17   35 1
    28   17   36 1
    29   18   19 1
    30   18   37 1
    31   18   38 1
    32   19   20 1
    33   19   22 1
    34   20   21 1
    35   20   39 1
    36   20   40 1
    37   21   41 1
    38   21   42 1
    39   22   27 ar
    40   22   23 ar
    41   23   24 ar
    42   23   30 1
    43   24   25 ar
    44   24   43 1
    45   25   26 ar
    46   25   29 1
    47   26   27 ar
    48   26   44 1
    49   27   28 1
