@<TRIPOS>MOLECULE
CHEMBL221573
   75    81     0     0     0
SMALL
USER_CHARGES

@<TRIPOS>ATOM
      1 C1          2.8040   -3.1563    5.1243 C.2       1 <0>        -0.2191
      2 C2          3.8917   -2.3433    4.7489 C.2       1 <0>        -0.1212
      3 C3          4.9990   -2.8780    5.3292 C.2       1 <0>         0.0279
      4 O1          4.6219   -3.9657    6.0286 O.3       1 <0>        -0.1602
      5 C4          3.2957   -4.1369    5.9070 C.2       1 <0>        -0.0003
      6 C5          6.3767   -2.3568    5.2124 C.2       1 <0>         0.3443
      7 N1          6.7396   -1.2652    4.5143 N.2       1 <0>        -0.4808
      8 C6          8.0310   -1.0857    4.6187 C.2       1 <0>         0.4992
      9 N2          8.8496   -0.1399    4.1107 N.2       1 <0>        -0.5241
     10 C7         10.1550   -0.2990    4.2544 C.2       1 <0>         0.6710
     11 N3         10.6789   -1.4236    4.8454 N.pl3     1 <0>        -0.6599
     12 C8          9.8750   -2.1564    5.7185 C.2       1 <0>         0.6290
     13 N4          8.5238   -2.0958    5.4196 N.pl3     1 <0>        -0.4290
     14 N5          7.4462   -2.8865    5.7823 N.2       1 <0>        -0.2736
     15 N6         10.3514   -2.8359    6.7227 N.2       1 <0>        -0.6693
     16 N7         11.0027    0.6780    3.8039 N.pl3     1 <0>        -0.5966
     17 C9         12.4622    0.5409    3.9371 C.3       1 <0>         0.0881
     18 C10        12.9968    1.8101    4.6042 C.3       1 <0>        -0.0212
     19 N8         12.5845    2.9947    3.8344 N.4       1 <0>        -0.3820
     20 C11        13.2028    4.1732    4.4604 C.3       1 <0>        -0.0029
     21 C12        12.8582    5.4343    3.6692 C.3       1 <0>        -0.1077
     22 H1         13.3274    6.2994    4.1378 H         1 <0>         0.1224
     23 C13        11.3363    5.6138    3.6665 C.3       1 <0>        -0.1190
     24 C14        10.6989    4.3658    3.0539 C.3       1 <0>        -0.1408
     25 C15        11.1236    3.1228    3.8435 C.3       1 <0>         0.0166
     26 H2         10.7708    3.2053    4.8715 H         1 <0>         0.1465
     27 C16        10.4874    1.8963    3.1657 C.3       1 <0>         0.1098
     28 C17        13.3636    5.2924    2.2321 C.3       1 <0>         0.0354
     29 N9         13.1481    6.5536    1.5104 N.3       1 <0>        -0.5169
     30 C18        14.1225    7.5713    1.9263 C.3       1 <0>         0.0912
     31 C19        13.6600    8.9286    1.4629 C.ar      1 <0>        -0.0435
     32 C20        14.1271    9.4702    0.2751 C.ar      1 <0>        -0.1711
     33 C21        13.6807   10.7177   -0.1178 C.ar      1 <0>         0.1055
     34 N10        12.8216   11.3907    0.6225 N.ar      1 <0>        -0.4782
     35 C22        12.3563   10.9068    1.7576 C.ar      1 <0>         0.1031
     36 C23        12.7529    9.6631    2.2113 C.ar      1 <0>        -0.1510
     37 C24        13.1944    6.3432    0.0573 C.3       1 <0>         0.0834
     38 C25        11.9130    5.6934   -0.3973 C.ar      1 <0>        -0.0325
     39 C26        11.8305    4.3179   -0.5514 C.ar      1 <0>        -0.1863
     40 C27        10.6386    3.7575   -0.9702 C.ar      1 <0>         0.0993
     41 N11         9.5889    4.5148   -1.2223 N.ar      1 <0>        -0.4758
     42 C28         9.6310    5.8258   -1.0867 C.ar      1 <0>         0.1092
     43 C29        10.7867    6.4562   -0.6659 C.ar      1 <0>        -0.1454
     44 H3          1.7708   -3.0173    4.8421 H         1 <0>         0.1618
     45 H4          3.8534   -1.4651    4.1215 H         1 <0>         0.1636
     46 H5          2.7188   -4.9291    6.3611 H         1 <0>         0.2158
     47 H6          9.7508   -3.3301    7.3022 H         1 <0>         0.3847
     48 H7         12.6960   -0.3265    4.5544 H         1 <0>         0.1282
     49 H8         12.9129    0.4248    2.9514 H         1 <0>         0.1131
     50 H9         12.6005    1.8808    5.6171 H         1 <0>         0.1398
     51 H10        14.0852    1.7662    4.6454 H         1 <0>         0.1525
     52 H11        12.8338    4.2753    5.4810 H         1 <0>         0.1354
     53 H12        14.2850    4.0448    4.4815 H         1 <0>         0.1336
     54 H13        10.9811    5.7418    4.6890 H         1 <0>         0.0807
     55 H14        11.0721    6.4887    3.0724 H         1 <0>         0.1096
     56 H15         9.6135    4.4612    3.0849 H         1 <0>         0.1167
     57 H16        11.0229    4.2650    2.0181 H         1 <0>         0.0922
     58 H17        10.7433    1.8886    2.1062 H         1 <0>         0.1033
     59 H18         9.4041    1.9368    3.2794 H         1 <0>         0.1530
     60 H19        14.4278    5.0572    2.2428 H         1 <0>         0.0540
     61 H20        12.8193    4.4906    1.7330 H         1 <0>         0.0755
     62 H21        14.2094    7.5685    3.0128 H         1 <0>         0.0924
     63 H22        15.0930    7.3474    1.4836 H         1 <0>         0.0568
     64 H23        14.8313    8.9242   -0.3352 H         1 <0>         0.1318
     65 H24        14.0398   11.1466   -1.0417 H         1 <0>         0.1579
     66 H25        11.6540   11.4874    2.3373 H         1 <0>         0.1575
     67 H26        12.3644    9.2700    3.1392 H         1 <0>         0.1330
     68 H27        13.3132    7.3032   -0.4452 H         1 <0>         0.0990
     69 H28        14.0369    5.6972   -0.1896 H         1 <0>         0.0560
     70 H29        12.6869    3.6925   -0.3472 H         1 <0>         0.1255
     71 H30        10.5662    2.6869   -1.0927 H         1 <0>         0.1539
     72 H31         8.7510    6.4133   -1.3029 H         1 <0>         0.1592
     73 H32        10.8136    7.5298   -0.5519 H         1 <0>         0.1348
     74 H33        11.5891   -1.7023    4.6589 H         1 <0>         0.4368
     75 H34        12.9091    2.9078    2.8830 H         1 <0>         0.4189
@<TRIPOS>BOND
     1    1    5 2
     2    1    2 1
     3    1   44 1
     4    2    3 2
     5    2   45 1
     6    3    4 1
     7    3    6 1
     8    4    5 1
     9    5   46 1
    10    6   14 2
    11    6    7 1
    12    7    8 2
    13    8   13 1
    14    8    9 1
    15    9   10 2
    16   10   11 1
    17   10   16 1
    18   11   12 1
    19   11   74 1
    20   12   13 1
    21   12   15 2
    22   13   14 1
    23   15   47 1
    24   16   27 1
    25   16   17 1
    26   17   18 1
    27   17   48 1
    28   17   49 1
    29   18   19 1
    30   18   50 1
    31   18   51 1
    32   19   25 1
    33   19   20 1
    34   19   75 1
    35   20   21 1
    36   20   52 1
    37   20   53 1
    38   21   22 1
    39   21   23 1
    40   21   28 1
    41   23   24 1
    42   23   54 1
    43   23   55 1
    44   24   25 1
    45   24   56 1
    46   24   57 1
    47   25   26 1
    48   25   27 1
    49   27   58 1
    50   27   59 1
    51   28   29 1
    52   28   60 1
    53   28   61 1
    54   29   30 1
    55   29   37 1
    56   30   31 1
    57   30   62 1
    58   30   63 1
    59   31   36 ar
    60   31   32 ar
    61   32   33 ar
    62   32   64 1
    63   33   34 ar
    64   33   65 1
    65   34   35 ar
    66   35   36 ar
    67   35   66 1
    68   36   67 1
    69   37   38 1
    70   37   68 1
    71   37   69 1
    72   38   43 ar
    73   38   39 ar
    74   39   40 ar
    75   39   70 1
    76   40   41 ar
    77   40   71 1
    78   41   42 ar
    79   42   43 ar
    80   42   72 1
    81   43   73 1
