@<TRIPOS>MOLECULE
CHEMBL505787
   36    39     0     0     0
SMALL
USER_CHARGES

@<TRIPOS>ATOM
      1 C1         -0.0184    1.5028    0.0103 C.3       1 <0>        -0.0841
      2 C2          0.0021   -0.0041    0.0020 C.2       1 <0>         0.0444
      3 C3          0.0052   -0.6805   -1.1812 C.2       1 <0>        -0.1912
      4 S1          0.0311   -2.3699   -0.5944 S.3       1 <0>         0.1270
      5 C4          0.0349   -1.9925    1.1534 C.2       1 <0>         0.0947
      6 N1          0.0223   -0.6660    1.1312 N.2       1 <0>        -0.4415
      7 C5          0.0528   -2.9094    2.3092 C.ar      1 <0>         0.4157
      8 C6          0.0768   -4.3093    2.1203 C.ar      1 <0>        -0.1561
      9 C7          0.0935   -5.1313    3.2631 C.ar      1 <0>         0.3671
     10 N2          0.0863   -4.5694    4.4669 N.ar      1 <0>        -0.5769
     11 C8          0.0636   -3.2530    4.5976 C.ar      1 <0>         0.6201
     12 N3          0.0523   -2.4364    3.5527 N.ar      1 <0>        -0.5286
     13 N4          0.0564   -2.7085    5.8705 N.pl3     1 <0>        -0.8007
     14 N5          0.1149   -6.4187    2.8016 N.pl3     1 <0>        -0.3804
     15 N6          0.1107   -6.3426    1.4005 N.2       1 <0>         0.0168
     16 N7          0.0884   -5.1069    1.0398 N.2       1 <0>        -0.1776
     17 C9          0.1383   -7.6390    3.6119 C.3       1 <0>         0.1797
     18 C10        -1.2742   -8.0823    3.8933 C.ar      1 <0>        -0.1640
     19 C11        -1.8971   -7.7027    5.0674 C.ar      1 <0>        -0.0617
     20 C12        -3.1927   -8.1092    5.3257 C.ar      1 <0>        -0.1350
     21 C13        -3.8672   -8.8957    4.4102 C.ar      1 <0>        -0.0744
     22 C14        -3.2467   -9.2760    3.2356 C.ar      1 <0>        -0.1594
     23 C15        -1.9506   -8.8651    2.9733 C.ar      1 <0>         0.1281
     24 F1         -1.3446   -9.2324    1.8231 F         1 <0>        -0.1270
     25 H1          1.0042    1.8801    0.0026 H         1 <0>         0.0762
     26 H2         -0.5455    1.8639   -0.8728 H         1 <0>         0.0762
     27 H3         -0.5286    1.8543    0.9071 H         1 <0>         0.0769
     28 H4         -0.0054   -0.3016   -2.1925 H         1 <0>         0.2061
     29 H5          0.0678   -3.2900    6.6468 H         1 <0>         0.4207
     30 H6          0.0399   -1.7455    5.9861 H         1 <0>         0.4235
     31 H7          0.6647   -8.4249    3.0702 H         1 <0>         0.1176
     32 H8          0.6511   -7.4403    4.5531 H         1 <0>         0.1186
     33 H9         -1.3711   -7.0887    5.7834 H         1 <0>         0.1382
     34 H10        -3.6784   -7.8124    6.2435 H         1 <0>         0.1339
     35 H11        -4.8792   -9.2133    4.6134 H         1 <0>         0.1367
     36 H12        -3.7737   -9.8907    2.5208 H         1 <0>         0.1403
@<TRIPOS>BOND
     1    1    2 1
     2    1   25 1
     3    1   26 1
     4    1   27 1
     5    2    6 1
     6    2    3 2
     7    3    4 1
     8    3   28 1
     9    4    5 1
    10    5    6 2
    11    5    7 1
    12    7   12 ar
    13    7    8 ar
    14    8   16 1
    15    8    9 ar
    16    9   10 ar
    17    9   14 1
    18   10   11 ar
    19   11   12 ar
    20   11   13 1
    21   13   29 1
    22   13   30 1
    23   14   15 1
    24   14   17 1
    25   15   16 2
    26   17   18 1
    27   17   31 1
    28   17   32 1
    29   18   23 ar
    30   18   19 ar
    31   19   20 ar
    32   19   33 1
    33   20   21 ar
    34   20   34 1
    35   21   22 ar
    36   21   35 1
    37   22   23 ar
    38   22   36 1
    39   23   24 1
