@<TRIPOS>MOLECULE
CHEMBL144360
   66    69     0     0     0
SMALL
USER_CHARGES

@<TRIPOS>ATOM
      1 C1         -0.0187    1.5258    0.0104 C.3       1 <0>        -0.1478
      2 C2          0.0021   -0.0041    0.0020 C.3       1 <0>        -0.1370
      3 C3         -1.4333   -0.5336    0.0129 C.3       1 <0>         0.1132
      4 N1         -1.4134   -1.9985    0.0048 N.am      1 <0>        -0.5482
      5 C4         -1.4101   -2.6566   -1.1731 C.2       1 <0>         0.5933
      6 O1         -1.4231   -2.0399   -2.2234 O.2       1 <0>        -0.5100
      7 C5         -1.3909   -4.0680   -1.1740 C.2       1 <0>        -0.1525
      8 C6         -1.3760   -4.7455    0.0387 C.2       1 <0>         0.3224
      9 N2         -1.3595   -6.0519   -0.2379 N.2       1 <0>        -0.4902
     10 H1         -1.3884   -4.8858   -3.1159 H         1 <0>         0.4353
     11 C7         -1.3633   -6.2307   -1.5343 C.2       1 <0>         0.3068
     12 N3         -1.3824   -5.0365   -2.1577 N.pl3     1 <0>        -0.5121
     13 C8         -1.3476   -7.5699   -2.2252 C.3       1 <0>        -0.0100
     14 C9         -0.5272   -7.4698   -3.5128 C.3       1 <0>        -0.1216
     15 C10        -0.5113   -8.8294   -4.2144 C.3       1 <0>        -0.1171
     16 C11        -1.9442   -9.2451   -4.5535 C.3       1 <0>        -0.1249
     17 C12        -2.7645   -9.3452   -3.2659 C.3       1 <0>        -0.1187
     18 C13        -2.7804   -7.9856   -2.5644 C.3       1 <0>        -0.1123
     19 N4         -1.3803   -4.0123    1.2144 N.am      1 <0>        -0.5073
     20 C14        -1.3933   -2.6667    1.1710 C.2       1 <0>         0.7078
     21 O2         -1.3920   -2.0401    2.2131 O.2       1 <0>        -0.5275
     22 C15        -1.3653   -4.7023    2.5066 C.3       1 <0>         0.1246
     23 C16         0.0823   -4.9234    2.9499 C.3       1 <0>        -0.1486
     24 C17         0.0980   -5.6439    4.2995 C.3       1 <0>         0.1240
     25 N5          1.4841   -5.8556    4.7240 N.am      1 <0>        -0.7215
     26 C18         1.7439   -6.4764    5.8917 C.2       1 <0>         0.5539
     27 O3          0.8282   -6.8607    6.5927 O.2       1 <0>        -0.5192
     28 C19         3.1428   -6.6900    6.3201 C.ar      1 <0>        -0.0732
     29 C20         4.1965   -6.2449    5.5203 C.ar      1 <0>        -0.1014
     30 C21         5.4995   -6.4469    5.9260 C.ar      1 <0>        -0.0416
     31 C22         5.7628   -7.0897    7.1226 C.ar      1 <0>        -0.6624
     32 C23         4.7229   -7.5338    7.9199 C.ar      1 <0>        -0.0140
     33 C24         3.4153   -7.3326    7.5288 C.ar      1 <0>        -0.0725
     34 S1          7.4299   -7.3442    7.6332 S.o2      1 <0>         2.6699
     35 O4          7.7990   -6.2047    8.3978 O.2       1 <0>        -0.9160
     36 O5          7.4984   -8.6651    8.1528 O.2       1 <0>        -0.9183
     37 F1          8.3423   -7.3236    6.3069 F         1 <0>        -0.4670
     38 H2          1.0039    1.9031    0.0027 H         1 <0>         0.0617
     39 H3         -0.5459    1.8868   -0.8726 H         1 <0>         0.0592
     40 H4         -0.5289    1.8773    0.9072 H         1 <0>         0.0601
     41 H5          0.5123   -0.3556   -0.8948 H         1 <0>         0.0670
     42 H6          0.5293   -0.3651    0.8851 H         1 <0>         0.0686
     43 H7         -1.9435   -0.1821    0.9097 H         1 <0>         0.1040
     44 H8         -1.9605   -0.1726   -0.8702 H         1 <0>         0.1018
     45 H9         -0.8999   -8.3136   -1.5661 H         1 <0>         0.1156
     46 H10        -0.9750   -6.7261   -4.1720 H         1 <0>         0.0638
     47 H11         0.4935   -7.1737   -3.2712 H         1 <0>         0.0721
     48 H12         0.0731   -8.7582   -5.1317 H         1 <0>         0.0696
     49 H13        -0.0636   -9.5732   -3.5552 H         1 <0>         0.0692
     50 H14        -2.3919   -8.5014   -5.2127 H         1 <0>         0.0633
     51 H15        -1.9328  -10.2137   -5.0533 H         1 <0>         0.0672
     52 H16        -3.7853   -9.6413   -3.5075 H         1 <0>         0.0696
     53 H17        -2.3168  -10.0889   -2.6067 H         1 <0>         0.0687
     54 H18        -3.3648   -8.0569   -1.6471 H         1 <0>         0.0749
     55 H19        -3.2281   -7.2419   -3.2236 H         1 <0>         0.0650
     56 H20        -1.8838   -4.0952    3.2487 H         1 <0>         0.1060
     57 H21        -1.8668   -5.6652    2.4102 H         1 <0>         0.1045
     58 H22         0.6009   -5.5304    2.2079 H         1 <0>         0.0785
     59 H23         0.5838   -3.9604    3.0463 H         1 <0>         0.0785
     60 H24        -0.4206   -5.0369    5.0416 H         1 <0>         0.0785
     61 H25        -0.4035   -6.6069    4.2031 H         1 <0>         0.0787
     62 H26         2.2148   -5.5490    4.1646 H         1 <0>         0.4016
     63 H27         3.9922   -5.7436    4.5857 H         1 <0>         0.1403
     64 H28         6.3157   -6.1030    5.3081 H         1 <0>         0.1468
     65 H29         4.9352   -8.0351    8.8527 H         1 <0>         0.1521
     66 H30         2.6044   -7.6754    8.1543 H         1 <0>         0.1546
@<TRIPOS>BOND
     1    1    2 1
     2    1   38 1
     3    1   39 1
     4    1   40 1
     5    2    3 1
     6    2   41 1
     7    2   42 1
     8    3   43 1
     9    3   44 1
    10    3    4 1
    11    4   20 am
    12    4    5 am
    13    5    6 2
    14    5    7 1
    15    7   12 1
    16    7    8 2
    17    8    9 1
    18    8   19 1
    19    9   11 2
    20   10   12 1
    21   11   12 1
    22   11   13 1
    23   13   18 1
    24   13   14 1
    25   13   45 1
    26   14   15 1
    27   14   46 1
    28   14   47 1
    29   15   16 1
    30   15   48 1
    31   15   49 1
    32   16   17 1
    33   16   50 1
    34   16   51 1
    35   17   18 1
    36   17   52 1
    37   17   53 1
    38   18   54 1
    39   18   55 1
    40   19   22 1
    41   19   20 am
    42   20   21 2
    43   22   23 1
    44   22   56 1
    45   22   57 1
    46   23   24 1
    47   23   58 1
    48   23   59 1
    49   24   25 1
    50   24   60 1
    51   24   61 1
    52   25   26 am
    53   25   62 1
    54   26   27 2
    55   26   28 1
    56   28   33 ar
    57   28   29 ar
    58   29   30 ar
    59   29   63 1
    60   30   31 ar
    61   30   64 1
    62   31   32 ar
    63   31   34 1
    64   32   33 ar
    65   32   65 1
    66   33   66 1
    67   34   35 2
    68   34   36 2
    69   34   37 1
