@<TRIPOS>MOLECULE
CHEMBL100382
   46    50     0     0     0
SMALL
USER_CHARGES

@<TRIPOS>ATOM
      1 C1         -0.0167    1.3781    0.0096 C.ar      1 <0>        -0.1214
      2 C2          1.1709    2.0855    0.0021 C.ar      1 <0>        -0.1180
      3 C3          2.3773    1.4107   -0.0130 C.ar      1 <0>        -0.1153
      4 C4          2.3960    0.0285   -0.0201 C.ar      1 <0>        -0.0874
      5 C5          1.2084   -0.6789   -0.0117 C.ar      1 <0>        -0.1153
      6 C6          0.0021   -0.0041    0.0020 C.ar      1 <0>        -0.1179
      7 C7          3.7112   -0.7071   -0.0376 C.3       1 <0>        -0.0659
      8 C8          4.1714   -0.9633    1.3989 C.3       1 <0>        -0.1285
      9 C9          5.4865   -1.6989    1.3815 C.2       1 <0>         0.5107
     10 O1          6.0046   -1.9897    0.3244 O.2       1 <0>        -0.4473
     11 N1          6.0868   -2.0337    2.5408 N.am      1 <0>        -0.6474
     12 C10         7.2924   -2.7081    2.5248 C.2       1 <0>         0.6223
     13 N2          7.8282   -3.0026    1.3704 N.2       1 <0>        -0.4666
     14 C11         9.0080   -3.6617    1.2735 C.ar      1 <0>         0.1649
     15 C12         9.5710   -3.9706    0.0322 C.ar      1 <0>        -0.0800
     16 C13        10.7626   -4.6359   -0.0281 C.ar      1 <0>        -0.0639
     17 C14        11.4296   -5.0137    1.1311 C.ar      1 <0>        -0.0465
     18 C15        10.8992   -4.7231    2.3703 C.ar      1 <0>        -0.0387
     19 C16         9.6850   -4.0452    2.4537 C.ar      1 <0>        -0.0939
     20 C17         9.0681   -3.7065    3.7414 C.2       1 <0>         0.3565
     21 N3          7.8755   -3.0332    3.7176 N.pl3     1 <0>        -0.3615
     22 N4          7.5154   -2.8310    5.0567 N.2       1 <0>        -0.2891
     23 C18         8.4690   -3.3636    5.7978 C.2       1 <0>         0.3472
     24 N5          9.4007   -3.8987    4.9988 N.2       1 <0>        -0.4985
     25 C19         8.4976   -3.3780    7.2753 C.2       1 <0>         0.0388
     26 C20         7.5496   -2.8539    8.0967 C.2       1 <0>        -0.1337
     27 C21         7.9802   -3.0915    9.4171 C.2       1 <0>        -0.2195
     28 C22         9.1576   -3.7422    9.3373 C.2       1 <0>        -0.0014
     29 O2          9.4646   -3.9180    8.0420 O.3       1 <0>        -0.1525
     30 Cl1        12.9419   -5.8586    1.0182 Cl        1 <0>        -0.0494
     31 H1         -0.9591    1.9053    0.0259 H         1 <0>         0.1218
     32 H2          1.1563    3.1654    0.0076 H         1 <0>         0.1226
     33 H3          3.3051    1.9634   -0.0196 H         1 <0>         0.1223
     34 H4          1.2231   -1.7588   -0.0176 H         1 <0>         0.1223
     35 H5         -0.9258   -0.5567    0.0082 H         1 <0>         0.1226
     36 H6          3.5884   -1.6586   -0.5549 H         1 <0>         0.0844
     37 H7          4.4573   -0.1052   -0.5563 H         1 <0>         0.0844
     38 H8          4.2941   -0.0118    1.9163 H         1 <0>         0.1047
     39 H9          3.4252   -1.5652    1.9176 H         1 <0>         0.1047
     40 H10         5.6724   -1.8012    3.3864 H         1 <0>         0.4300
     41 H11         9.0648   -3.6841   -0.8777 H         1 <0>         0.1576
     42 H12        11.1923   -4.8720   -0.9904 H         1 <0>         0.1510
     43 H13        11.4206   -5.0188    3.2687 H         1 <0>         0.1543
     44 H14         6.6419   -2.3521    7.7954 H         1 <0>         0.1608
     45 H15         7.4644   -2.8059   10.3220 H         1 <0>         0.1606
     46 H16         9.7535   -4.0709   10.1759 H         1 <0>         0.2152
@<TRIPOS>BOND
     1    1    6 ar
     2    1    2 ar
     3    1   31 1
     4    2    3 ar
     5    2   32 1
     6    3    4 ar
     7    3   33 1
     8    4    5 ar
     9    4    7 1
    10    5    6 ar
    11    5   34 1
    12    6   35 1
    13    7    8 1
    14    7   36 1
    15    7   37 1
    16    8    9 1
    17    8   38 1
    18    8   39 1
    19    9   10 2
    20    9   11 am
    21   11   12 1
    22   11   40 1
    23   12   21 1
    24   12   13 2
    25   13   14 1
    26   14   19 ar
    27   14   15 ar
    28   15   16 ar
    29   15   41 1
    30   16   17 ar
    31   16   42 1
    32   17   18 ar
    33   17   30 1
    34   18   19 ar
    35   18   43 1
    36   19   20 1
    37   20   24 2
    38   20   21 1
    39   21   22 1
    40   22   23 2
    41   23   24 1
    42   23   25 1
    43   25   29 1
    44   25   26 2
    45   26   27 1
    46   26   44 1
    47   27   28 2
    48   27   45 1
    49   28   29 1
    50   28   46 1
