@<TRIPOS>MOLECULE
CHEMBL278906
   38    42     0     0     0
SMALL
USER_CHARGES

@<TRIPOS>ATOM
      1 C1         -0.0162    1.3433    0.0094 C.2       1 <0>        -0.2189
      2 C2          1.3252    1.7744   -0.0011 C.2       1 <0>        -0.1382
      3 C3          2.0963    0.6547   -0.0144 C.2       1 <0>         0.0440
      4 O1          1.2798   -0.4166   -0.0124 O.3       1 <0>        -0.1534
      5 C4          0.0021   -0.0041    0.0020 C.2       1 <0>        -0.0061
      6 C5          3.5736    0.6192   -0.0292 C.2       1 <0>         0.3416
      7 N1          4.3234   -0.4913   -0.0477 N.2       1 <0>        -0.5146
      8 C6          5.5962   -0.1645   -0.0572 C.2       1 <0>         0.4122
      9 C7          6.8502   -0.9281   -0.0781 C.2       1 <0>        -0.2742
     10 C8          7.1919   -2.2557   -0.0950 C.2       1 <0>         0.1602
     11 N2          8.5339   -2.3343   -0.1099 N.pl3     1 <0>        -0.3396
     12 N3          9.0829   -1.0467   -0.1029 N.2       1 <0>        -0.2625
     13 C9          8.1086   -0.1655   -0.0839 C.2       1 <0>         0.3221
     14 N4          8.0424    1.1922   -0.0703 N.2       1 <0>        -0.5331
     15 C10         6.9021    1.8265   -0.0526 C.2       1 <0>         0.6848
     16 N5          5.6835    1.2018   -0.0446 N.pl3     1 <0>        -0.3798
     17 N6          4.3631    1.6752   -0.0320 N.2       1 <0>        -0.2893
     18 N7          6.9254    3.2017   -0.0398 N.pl3     1 <0>        -0.8080
     19 C11         9.3053   -3.5797   -0.1298 C.3       1 <0>         0.1742
     20 C12        10.2502   -3.5666   -1.3037 C.ar      1 <0>        -0.1308
     21 C13         9.8401   -4.0656   -2.5259 C.ar      1 <0>        -0.0675
     22 C14        10.7056   -4.0538   -3.6033 C.ar      1 <0>        -0.1586
     23 C15        11.9839   -3.5419   -3.4581 C.ar      1 <0>         0.1144
     24 C16        12.3935   -3.0424   -2.2334 C.ar      1 <0>        -0.1566
     25 C17        11.5245   -3.0505   -1.1589 C.ar      1 <0>        -0.0483
     26 F1         12.8310   -3.5302   -4.5105 F         1 <0>        -0.1360
     27 H1         -0.8931    1.9735    0.0252 H         1 <0>         0.1593
     28 H2          1.6736    2.7966    0.0006 H         1 <0>         0.1601
     29 H3         -0.8667   -0.6456    0.0069 H         1 <0>         0.2138
     30 H4          6.5055   -3.0895   -0.0955 H         1 <0>         0.1983
     31 H5          7.7736    3.6724   -0.0441 H         1 <0>         0.4298
     32 H6          6.0938    3.7008   -0.0265 H         1 <0>         0.4235
     33 H7          9.8757   -3.6685    0.7948 H         1 <0>         0.1079
     34 H8          8.6254   -4.4268   -0.2200 H         1 <0>         0.1183
     35 H9          8.8431   -4.4652   -2.6389 H         1 <0>         0.1342
     36 H10        10.3852   -4.4440   -4.5580 H         1 <0>         0.1388
     37 H11        13.3905   -2.6432   -2.1189 H         1 <0>         0.1399
     38 H12        11.8423   -2.6568   -0.2047 H         1 <0>         0.1381
@<TRIPOS>BOND
     1    1    5 2
     2    1    2 1
     3    1   27 1
     4    2    3 2
     5    2   28 1
     6    3    4 1
     7    3    6 1
     8    4    5 1
     9    5   29 1
    10    6   17 2
    11    6    7 1
    12    7    8 2
    13    8   16 1
    14    8    9 1
    15    9   13 1
    16    9   10 2
    17   10   11 1
    18   10   30 1
    19   11   12 1
    20   11   19 1
    21   12   13 2
    22   13   14 1
    23   14   15 2
    24   15   16 1
    25   15   18 1
    26   16   17 1
    27   18   31 1
    28   18   32 1
    29   19   20 1
    30   19   33 1
    31   19   34 1
    32   20   25 ar
    33   20   21 ar
    34   21   22 ar
    35   21   35 1
    36   22   23 ar
    37   22   36 1
    38   23   24 ar
    39   23   26 1
    40   24   25 ar
    41   24   37 1
    42   25   38 1
