@<TRIPOS>MOLECULE
CHEMBL605257
   55    58     0     0     0
SMALL
USER_CHARGES

@<TRIPOS>ATOM
      1 C1         -0.0167    1.3781    0.0096 C.ar      1 <0>        -0.1252
      2 C2          1.1709    2.0855    0.0021 C.ar      1 <0>        -0.1183
      3 C3          2.3773    1.4107   -0.0130 C.ar      1 <0>        -0.1180
      4 C4          2.3960    0.0285   -0.0201 C.ar      1 <0>        -0.0828
      5 C5          1.2084   -0.6789   -0.0117 C.ar      1 <0>        -0.1180
      6 C6          0.0021   -0.0041    0.0020 C.ar      1 <0>        -0.1183
      7 C7          3.7112   -0.7071   -0.0376 C.3       1 <0>        -0.0801
      8 C8          4.1714   -0.9633    1.3989 C.3       1 <0>        -0.1083
      9 C9          5.5066   -1.7102    1.3812 C.3       1 <0>        -0.1209
     10 C10         5.9667   -1.9663    2.8177 C.3       1 <0>         0.0778
     11 O1          7.2138   -2.6639    2.8011 O.3       1 <0>        -0.2860
     12 C11         7.7633   -2.9702    4.0013 C.ar      1 <0>         0.5680
     13 N1          7.1227   -2.6171    5.1067 N.ar      1 <0>        -0.6312
     14 C12         7.6198   -2.8944    6.3070 C.ar      1 <0>         0.5417
     15 C13         8.8475   -3.5746    6.3849 C.ar      1 <0>        -0.1308
     16 C14         9.4892   -3.9282    5.1867 C.ar      1 <0>         0.3414
     17 N2          8.9161   -3.6150    4.0285 N.ar      1 <0>        -0.5686
     18 N3         10.6458   -4.5695    5.5515 N.pl3     1 <0>        -0.4599
     19 C15        10.6869   -4.5944    6.9148 C.2       1 <0>         0.2838
     20 N4          9.6312   -4.0104    7.4016 N.2       1 <0>        -0.4614
     21 C16        11.6518   -5.1261    4.6436 C.3       1 <0>         0.3166
     22 C17        12.6952   -4.0438    4.2683 C.3       1 <0>         0.0749
     23 H1         12.3635   -3.4591    3.4103 H         1 <0>         0.0982
     24 C18        13.9189   -4.9279    3.9038 C.3       1 <0>         0.0486
     25 H2         13.8568   -5.2692    2.8705 H         1 <0>         0.0916
     26 C19        13.7710   -6.1120    4.8833 C.3       1 <0>         0.0599
     27 H3         14.4180   -5.9602    5.7473 H         1 <0>         0.1082
     28 O2         12.4024   -6.1580    5.3033 O.3       1 <0>        -0.3495
     29 C20        14.1439   -7.4180    4.1789 C.3       1 <0>         0.0647
     30 O3         14.1170   -8.4920    5.1212 O.3       1 <0>        -0.5615
     31 O4         15.1411   -4.2236    4.1319 O.3       1 <0>        -0.5428
     32 O5         12.9837   -3.1980    5.3834 O.3       1 <0>        -0.5335
     33 N5          6.9441   -2.5214    7.4554 N.pl3     1 <0>        -0.8126
     34 H4         -0.9591    1.9053    0.0259 H         1 <0>         0.1208
     35 H5          1.1563    3.1654    0.0076 H         1 <0>         0.1214
     36 H6          3.3051    1.9634   -0.0196 H         1 <0>         0.1211
     37 H7          1.2231   -1.7588   -0.0176 H         1 <0>         0.1212
     38 H8         -0.9258   -0.5567    0.0082 H         1 <0>         0.1214
     39 H9          3.5884   -1.6586   -0.5549 H         1 <0>         0.0747
     40 H10         4.4573   -0.1052   -0.5563 H         1 <0>         0.0747
     41 H11         4.2941   -0.0118    1.9163 H         1 <0>         0.0685
     42 H12         3.4252   -1.5652    1.9176 H         1 <0>         0.0686
     43 H13         5.3838   -2.6617    0.8639 H         1 <0>         0.0759
     44 H14         6.2527   -1.1082    0.8625 H         1 <0>         0.0757
     45 H15         6.0895   -1.0148    3.3350 H         1 <0>         0.0707
     46 H16         5.2206   -2.5682    3.3364 H         1 <0>         0.0710
     47 H17        11.4788   -5.0340    7.5031 H         1 <0>         0.2206
     48 H18        11.1741   -5.5204    3.7466 H         1 <0>         0.1278
     49 H19        13.4290   -7.6172    3.3806 H         1 <0>         0.0556
     50 H20        15.1449   -7.3301    3.7567 H         1 <0>         0.0614
     51 H21        14.3438   -9.3527    4.7433 H         1 <0>         0.3842
     52 H22        15.9346   -4.7336    3.9191 H         1 <0>         0.3906
     53 H23        13.6319   -2.5058    5.1946 H         1 <0>         0.3935
     54 H24         6.0978   -2.0521    7.3893 H         1 <0>         0.4106
     55 H25         7.3168   -2.7293    8.3265 H         1 <0>         0.4221
@<TRIPOS>BOND
     1    1    6 ar
     2    1    2 ar
     3    1   34 1
     4    2    3 ar
     5    2   35 1
     6    3    4 ar
     7    3   36 1
     8    4    5 ar
     9    4    7 1
    10    5    6 ar
    11    5   37 1
    12    6   38 1
    13    7    8 1
    14    7   39 1
    15    7   40 1
    16    8    9 1
    17    8   41 1
    18    8   42 1
    19    9   10 1
    20    9   43 1
    21    9   44 1
    22   10   11 1
    23   10   45 1
    24   10   46 1
    25   11   12 1
    26   12   17 ar
    27   12   13 ar
    28   13   14 ar
    29   14   15 ar
    30   14   33 1
    31   15   20 1
    32   15   16 ar
    33   16   17 ar
    34   16   18 1
    35   18   19 1
    36   18   21 1
    37   19   20 2
    38   19   47 1
    39   21   28 1
    40   21   22 1
    41   21   48 1
    42   22   23 1
    43   22   24 1
    44   22   32 1
    45   24   25 1
    46   24   26 1
    47   24   31 1
    48   26   27 1
    49   26   28 1
    50   26   29 1
    51   29   30 1
    52   29   49 1
    53   29   50 1
    54   30   51 1
    55   31   52 1
    56   32   53 1
    57   33   54 1
    58   33   55 1
