@<TRIPOS>MOLECULE
CHEMBL1221457
   37    40     0     0     0
SMALL
USER_CHARGES

@<TRIPOS>ATOM
      1 C1         -0.2215    1.4890    0.0280 C.3       1 <0>        -0.0722
      2 C2         -0.0491   -0.0079    0.0071 C.2       1 <0>         0.2566
      3 N1         -0.1314   -0.7795   -1.0770 N.2       1 <0>        -0.5407
      4 C3          0.0702   -2.0417   -0.7472 C.2       1 <0>         0.3969
      5 O1          0.2886   -2.0920    0.5811 O.3       1 <0>        -0.0884
      6 N2          0.2098   -0.7527    1.0452 N.2       1 <0>        -0.3449
      7 C4          0.0581   -3.1839   -1.6624 C.2       1 <0>        -0.2625
      8 C5          0.1470   -4.5513   -1.3850 C.2       1 <0>         0.2242
      9 N3          0.1078   -5.3552   -2.4314 N.2       1 <0>        -0.5476
     10 C6         -0.0081   -4.8851   -3.6552 C.2       1 <0>         0.2545
     11 S1         -0.0820   -3.2180   -3.4420 S.3       1 <0>         0.3626
     12 N4         -0.0625   -5.5976   -4.8421 N.am      1 <0>        -0.6028
     13 C7         -0.1835   -4.9448   -6.0150 C.2       1 <0>         0.5459
     14 O2         -0.2449   -3.7337   -6.0314 O.2       1 <0>        -0.4919
     15 C8         -0.2427   -5.7198   -7.3061 C.3       1 <0>        -0.1962
     16 C9          0.9481   -5.5970   -8.2589 C.3       1 <0>        -0.1460
     17 C10        -0.3804   -4.9211   -8.6038 C.3       1 <0>        -0.1388
     18 C11         0.2775   -5.0662   -0.0027 C.ar      1 <0>        -0.0445
     19 C12        -0.5449   -4.5713    1.0095 C.ar      1 <0>        -0.0750
     20 C13        -0.4185   -5.0550    2.2955 C.ar      1 <0>        -0.1158
     21 C14         0.5216   -6.0288    2.5821 C.ar      1 <0>        -0.1006
     22 C15         1.3406   -6.5232    1.5826 C.ar      1 <0>        -0.1243
     23 C16         1.2195   -6.0521    0.2914 C.ar      1 <0>        -0.0755
     24 H1          0.7442    1.9683   -0.1328 H         1 <0>         0.0973
     25 H2         -0.9108    1.7865   -0.7623 H         1 <0>         0.0979
     26 H3         -0.6226    1.7951    0.9942 H         1 <0>         0.0921
     27 H4         -0.0134   -6.5663   -4.8290 H         1 <0>         0.4312
     28 H5         -0.7476   -6.6843   -7.2528 H         1 <0>         0.1371
     29 H6          1.7743   -4.9557   -7.9519 H         1 <0>         0.1043
     30 H7          1.2269   -6.4810   -8.8326 H         1 <0>         0.1133
     31 H8         -0.9757   -5.3603   -9.4043 H         1 <0>         0.1120
     32 H9         -0.4283   -3.8351   -8.5237 H         1 <0>         0.1133
     33 H10        -1.2789   -3.8109    0.7872 H         1 <0>         0.1188
     34 H11        -1.0544   -4.6725    3.0802 H         1 <0>         0.1282
     35 H12         0.6169   -6.4042    3.5902 H         1 <0>         0.1266
     36 H13         2.0728   -7.2831    1.8125 H         1 <0>         0.1281
     37 H14         1.8558   -6.4425   -0.4890 H         1 <0>         0.1268
@<TRIPOS>BOND
     1    1    2 1
     2    1   24 1
     3    1   25 1
     4    1   26 1
     5    2    6 2
     6    2    3 1
     7    3    4 2
     8    4    5 1
     9    4    7 1
    10    5    6 1
    11    7   11 1
    12    7    8 2
    13    8    9 1
    14    8   18 1
    15    9   10 2
    16   10   11 1
    17   10   12 1
    18   12   13 am
    19   12   27 1
    20   13   14 2
    21   13   15 1
    22   15   17 1
    23   15   16 1
    24   15   28 1
    25   16   17 1
    26   16   29 1
    27   16   30 1
    28   17   31 1
    29   17   32 1
    30   18   23 ar
    31   18   19 ar
    32   19   20 ar
    33   19   33 1
    34   20   21 ar
    35   20   34 1
    36   21   22 ar
    37   21   35 1
    38   22   23 ar
    39   22   36 1
    40   23   37 1
