@<TRIPOS>MOLECULE
CHEMBL196320
   49    52     0     0     0
SMALL
USER_CHARGES

@<TRIPOS>ATOM
      1 C1         -1.4146    0.9698   -1.0839 C.3       1 <0>        -0.1684
      2 C2         -0.3788   -0.1360   -0.8715 C.3       1 <0>         0.1080
      3 N1          0.5960   -0.1086   -1.9648 N.am      1 <0>        -0.6004
      4 C3          1.8057    0.7093   -1.8474 C.3       1 <0>         0.0885
      5 C4          2.8352   -0.0237   -0.9851 C.3       1 <0>        -0.1863
      6 C5          0.3798   -0.8359   -3.0787 C.2       1 <0>         0.5534
      7 O1         -0.6484   -1.4731   -3.1985 O.2       1 <0>        -0.5270
      8 C6          1.3934   -0.8588   -4.1551 C.ar      1 <0>        -0.1110
      9 C7          2.7531   -0.8683   -3.8362 C.ar      1 <0>        -0.0723
     10 C8          3.6996   -0.8891   -4.8406 C.ar      1 <0>        -0.1061
     11 C9          3.3089   -0.9007   -6.1657 C.ar      1 <0>        -0.0601
     12 C10         1.9544   -0.8913   -6.4970 C.ar      1 <0>        -0.0811
     13 C11         0.9943   -0.8766   -5.4901 C.ar      1 <0>        -0.0519
     14 C12         1.5378   -0.9028   -7.9209 C.2       1 <0>         0.1389
     15 C13         2.4869   -0.9281   -8.8971 C.2       1 <0>         0.0979
     16 N2          2.1118   -0.9392  -10.2065 N.pl3     1 <0>        -0.2484
     17 C14         0.7824   -0.9248  -10.5265 C.2       1 <0>         0.2047
     18 C15        -0.1743   -0.8978   -9.4806 C.cat     1 <0>         0.5667
     19 N3          0.2305   -0.8936   -8.2272 N.pl3     1 <0>        -0.5003
     20 N4         -1.5286   -0.8826   -9.7754 N.pl3     1 <0>        -0.7522
     21 N5          0.6870   -0.9399  -11.8460 N.2       1 <0>        -0.4416
     22 C16         1.9067   -0.9635  -12.3851 C.2       1 <0>         0.3617
     23 N6          2.8116   -0.9640  -11.4183 N.2       1 <0>        -0.2249
     24 C17         2.2019   -0.9861  -13.8332 C.2       1 <0>         0.0053
     25 C18         3.4395   -1.0158  -14.3947 C.2       1 <0>        -0.1083
     26 C19         3.2515   -1.0293  -15.7911 C.2       1 <0>        -0.2194
     27 C20         1.9222   -1.0074  -16.0106 C.2       1 <0>         0.0205
     28 O2          1.2911   -0.9868  -14.8256 O.3       1 <0>        -0.1535
     29 H1         -0.9143    1.9381   -1.1005 H         1 <0>         0.0574
     30 H2         -1.9277    0.8097   -2.0322 H         1 <0>         0.0577
     31 H3         -2.1398    0.9495   -0.2705 H         1 <0>         0.0728
     32 H4          0.1343    0.0241    0.0768 H         1 <0>         0.0850
     33 H5         -0.8791   -1.1042   -0.8550 H         1 <0>         0.0881
     34 H6          2.2223    0.8864   -2.8390 H         1 <0>         0.0877
     35 H7          1.5557    1.6631   -1.3827 H         1 <0>         0.0874
     36 H8          2.8175   -1.0872   -1.2233 H         1 <0>         0.0670
     37 H9          3.8288    0.3770   -1.1860 H         1 <0>         0.0780
     38 H10         2.5930    0.1168    0.0683 H         1 <0>         0.0718
     39 H11         3.0644   -0.8590   -2.8021 H         1 <0>         0.1616
     40 H12         4.7500   -0.8961   -4.5896 H         1 <0>         0.1521
     41 H13         4.0545   -0.9166   -6.9469 H         1 <0>         0.1444
     42 H14        -0.0558   -0.8738   -5.7423 H         1 <0>         0.1296
     43 H15         3.5343   -0.9390   -8.6337 H         1 <0>         0.2219
     44 H16        -1.8239   -0.8905  -10.6993 H         1 <0>         0.4571
     45 H17        -2.1810   -0.8641   -9.0578 H         1 <0>         0.4391
     46 H18         4.3843   -1.0265  -13.8716 H         1 <0>         0.1657
     47 H19         4.0263   -1.0522  -16.5431 H         1 <0>         0.1674
     48 H20         1.4437   -1.0098  -16.9788 H         1 <0>         0.2220
     49 H21        -0.4265   -0.8792   -7.5138 H         1 <0>         0.4539
@<TRIPOS>BOND
     1    1    2 1
     2    1   29 1
     3    1   30 1
     4    1   31 1
     5    2    3 1
     6    2   32 1
     7    2   33 1
     8    3    4 1
     9    3    6 am
    10    4    5 1
    11    4   34 1
    12    4   35 1
    13    5   36 1
    14    5   37 1
    15    5   38 1
    16    6    7 2
    17    6    8 1
    18    8   13 ar
    19    8    9 ar
    20    9   10 ar
    21    9   39 1
    22   10   11 ar
    23   10   40 1
    24   11   12 ar
    25   11   41 1
    26   12   13 ar
    27   12   14 1
    28   13   42 1
    29   14   19 1
    30   14   15 2
    31   15   16 1
    32   15   43 1
    33   16   23 1
    34   16   17 1
    35   17   18 1
    36   17   21 2
    37   18   19 2
    38   18   20 1
    39   19   49 1
    40   20   44 1
    41   20   45 1
    42   21   22 1
    43   22   23 2
    44   22   24 1
    45   24   28 1
    46   24   25 2
    47   25   26 1
    48   25   46 1
    49   26   27 2
    50   26   47 1
    51   27   28 1
    52   27   48 1
