@<TRIPOS>MOLECULE
CHEMBL257982
   37    40     0     0     0
SMALL
USER_CHARGES

@<TRIPOS>ATOM
      1 C1         -0.0167    1.3780    0.0096 C.ar      1 <0>        -0.1362
      2 C2          1.1706    2.0866    0.0021 C.ar      1 <0>        -0.0789
      3 C3          2.3773    1.4137   -0.0131 C.ar      1 <0>        -0.1628
      4 C4          2.3974    0.0291   -0.0207 C.ar      1 <0>         0.1232
      5 C5          1.2080   -0.6793   -0.0132 C.ar      1 <0>        -0.1584
      6 C6          0.0021   -0.0041    0.0020 C.ar      1 <0>        -0.0627
      7 C7          1.2281   -2.1862   -0.0220 C.3       1 <0>         0.1877
      8 N1          1.3684   -2.6807    1.3499 N.pl3     1 <0>        -0.3831
      9 C8          2.5451   -2.9302    1.9934 C.ar      1 <0>         0.3902
     10 C9          2.2065   -3.3883    3.2848 C.ar      1 <0>        -0.2983
     11 C10         0.7972   -3.3945    3.3637 C.2       1 <0>         0.1311
     12 N2          0.3177   -2.9730    2.2285 N.2       1 <0>        -0.2536
     13 C11         3.2491   -3.7228    4.1712 C.ar      1 <0>         0.3483
     14 N3          4.5030   -3.5919    3.7514 N.ar      1 <0>        -0.5762
     15 C12         4.7749   -3.1570    2.5279 C.ar      1 <0>         0.6131
     16 N4          3.8288   -2.8313    1.6629 N.ar      1 <0>        -0.5789
     17 N5          6.0991   -3.0389    2.1421 N.pl3     1 <0>        -0.8131
     18 C13         2.9543   -4.2088    5.5398 C.ar      1 <0>         0.1516
     19 C14         3.8865   -5.0011    6.2076 C.ar      1 <0>        -0.1171
     20 C15         3.5968   -5.4476    7.4858 C.ar      1 <0>        -0.0802
     21 C16         2.3838   -5.0868    8.0542 C.ar      1 <0>        -0.1534
     22 C17         1.5049   -4.2974    7.3337 C.ar      1 <0>         0.1017
     23 N6          1.8073   -3.8817    6.1216 N.ar      1 <0>        -0.4599
     24 F1          3.5766   -0.6299   -0.0360 F         1 <0>        -0.1206
     25 H1         -0.9594    1.9048    0.0260 H         1 <0>         0.1327
     26 H2          1.1547    3.1665    0.0077 H         1 <0>         0.1343
     27 H3          3.3046    1.9675   -0.0193 H         1 <0>         0.1361
     28 H4         -0.9259   -0.5565    0.0083 H         1 <0>         0.1360
     29 H5          0.2975   -2.5595   -0.4494 H         1 <0>         0.1104
     30 H6          2.0689   -2.5348   -0.6216 H         1 <0>         0.1066
     31 H7          0.2147   -3.6936    4.2226 H         1 <0>         0.2020
     32 H8          6.8076   -3.2722    2.7622 H         1 <0>         0.4172
     33 H9          6.3186   -2.7228    1.2517 H         1 <0>         0.4173
     34 H10         4.8213   -5.2633    5.7346 H         1 <0>         0.1461
     35 H11         4.2993   -6.0633    8.0280 H         1 <0>         0.1417
     36 H12         2.1278   -5.4191    9.0494 H         1 <0>         0.1410
     37 H13         0.5598   -4.0147    7.7733 H         1 <0>         0.1652
@<TRIPOS>BOND
     1    1    6 ar
     2    1    2 ar
     3    1   25 1
     4    2    3 ar
     5    2   26 1
     6    3    4 ar
     7    3   27 1
     8    4    5 ar
     9    4   24 1
    10    5    6 ar
    11    5    7 1
    12    6   28 1
    13    7    8 1
    14    7   29 1
    15    7   30 1
    16    8   12 1
    17    8    9 1
    18    9   16 ar
    19    9   10 ar
    20   10   11 1
    21   10   13 ar
    22   11   12 2
    23   11   31 1
    24   13   14 ar
    25   13   18 1
    26   14   15 ar
    27   15   16 ar
    28   15   17 1
    29   17   32 1
    30   17   33 1
    31   18   23 ar
    32   18   19 ar
    33   19   20 ar
    34   19   34 1
    35   20   21 ar
    36   20   35 1
    37   21   22 ar
    38   21   36 1
    39   22   23 ar
    40   22   37 1
