@<TRIPOS>MOLECULE
CHEMBL16509
   35    39     0     0     0
SMALL
USER_CHARGES

@<TRIPOS>ATOM
      1 C1         -0.0167    1.3786    0.0096 C.ar      1 <0>        -0.1161
      2 C2          1.1696    2.0892    0.0021 C.ar      1 <0>        -0.1031
      3 C3          2.3774    1.4195   -0.0135 C.ar      1 <0>        -0.1057
      4 C4          2.3996    0.0309   -0.0212 C.ar      1 <0>         0.1470
      5 C5          1.2065   -0.6797   -0.0132 C.ar      1 <0>        -0.1111
      6 C6          0.0021   -0.0041    0.0020 C.ar      1 <0>        -0.1009
      7 N1          3.6226   -0.6512   -0.0375 N.pl3     1 <0>        -0.3085
      8 C7          3.8855   -1.8387    0.5835 C.2       1 <0>         0.3750
      9 C8          5.2253   -2.1475    0.3025 C.2       1 <0>        -0.2626
     10 C9          5.7353   -1.1091   -0.4978 C.2       1 <0>         0.1388
     11 N2          4.7856   -0.2364   -0.6984 N.2       1 <0>        -0.2592
     12 C10         5.7751   -3.3861    0.8543 C.2       1 <0>         0.4069
     13 N3          6.9506   -3.9773    0.8009 N.2       1 <0>        -0.5133
     14 C11         6.9121   -5.1189    1.4997 C.2       1 <0>         0.3519
     15 N4          5.7059   -5.2747    2.0123 N.2       1 <0>        -0.2978
     16 N5          4.9443   -4.1691    1.6131 N.pl3     1 <0>        -0.3759
     17 C12         3.6535   -3.7829    1.8302 C.2       1 <0>         0.6938
     18 N6          3.1585   -2.6737    1.3378 N.2       1 <0>        -0.5590
     19 N7          2.8417   -4.5877    2.5948 N.pl3     1 <0>        -0.7996
     20 C13         8.0417   -6.0566    1.6697 C.2       1 <0>         0.0411
     21 C14         8.0137   -7.2205    2.3716 C.2       1 <0>        -0.1360
     22 C15         9.2990   -7.7883    2.2675 C.2       1 <0>        -0.2200
     23 C16        10.0404   -6.9517    1.5150 C.2       1 <0>        -0.0031
     24 O1          9.2762   -5.9093    1.1512 O.3       1 <0>        -0.1520
     25 H1         -0.9598    1.9047    0.0260 H         1 <0>         0.1306
     26 H2          1.1517    3.1690    0.0081 H         1 <0>         0.1343
     27 H3          3.3035    1.9750   -0.0201 H         1 <0>         0.1354
     28 H4          1.2205   -1.7596   -0.0191 H         1 <0>         0.1344
     29 H5         -0.9261   -0.5562    0.0079 H         1 <0>         0.1337
     30 H6          6.7415   -1.0470   -0.8852 H         1 <0>         0.2083
     31 H7          3.1896   -5.4124    2.9685 H         1 <0>         0.4272
     32 H8          1.9212   -4.3305    2.7606 H         1 <0>         0.4313
     33 H9          7.1695   -7.6305    2.9060 H         1 <0>         0.1601
     34 H10         9.6279   -8.7179    2.7080 H         1 <0>         0.1597
     35 H11        11.0761   -7.0975    1.2457 H         1 <0>         0.2145
@<TRIPOS>BOND
     1    1    6 ar
     2    1    2 ar
     3    1   25 1
     4    2    3 ar
     5    2   26 1
     6    3    4 ar
     7    3   27 1
     8    4    5 ar
     9    4    7 1
    10    5    6 ar
    11    5   28 1
    12    6   29 1
    13    7   11 1
    14    7    8 1
    15    8   18 1
    16    8    9 2
    17    9   10 1
    18    9   12 1
    19   10   11 2
    20   10   30 1
    21   12   16 1
    22   12   13 2
    23   13   14 1
    24   14   15 2
    25   14   20 1
    26   15   16 1
    27   16   17 1
    28   17   18 2
    29   17   19 1
    30   19   31 1
    31   19   32 1
    32   20   24 1
    33   20   21 2
    34   21   22 1
    35   21   33 1
    36   22   23 2
    37   22   34 1
    38   23   24 1
    39   23   35 1
